version 2
run Default-0-20201102-00:36:11-15251
attr configname Default
attr datetime 20201102-00:36:11
attr experiment Default
attr inifile omnetpp.ini
attr iterationvars ""
attr iterationvarsf ""
attr measurement ""
attr network RSUExampleScenario
attr processid 15251
attr repetition 0
attr replication #0
attr resultdir results
attr runnumber 0
attr seedset 0
param *.playgroundSizeX 2500m
param *.playgroundSizeY 2500m
param *.playgroundSizeZ 50m
param *.annotations.draw true
param *.obstacles.obstacles "xmldoc(\"config.xml\", \"//AnalogueModel[@type='SimpleObstacleShadowing']/obstacles\")"
param *.manager.updateInterval 1s
param *.manager.host "\"localhost\""
param *.manager.port 9999
param *.manager.autoShutdown true
param *.manager.launchConfig "xmldoc(\"erlangen.launchd.xml\")"
param *.rsu[0].mobility.x 2000
param *.rsu[0].mobility.y 2000
param *.rsu[0].mobility.z 3
param *.rsu[*].applType "\"TraCIDemoRSU11p\""
param *.rsu[*].appl.headerLength "80 bit"
param *.rsu[*].appl.sendBeacons false
param *.rsu[*].appl.dataOnSch false
param *.rsu[*].appl.beaconInterval 1s
param *.rsu[*].appl.beaconUserPriority 7
param *.rsu[*].appl.dataUserPriority 5
param *.rsu[*].nic.phy80211p.antennaOffsetZ "0 m"
param *.connectionManager.sendDirect true
param *.connectionManager.maxInterfDist 2600m
param *.connectionManager.drawMaxIntfDist false
param *.**.nic.mac1609_4.useServiceChannel false
param *.**.nic.mac1609_4.txPower 20mW
param *.**.nic.mac1609_4.bitrate 6Mbps
param *.**.nic.phy80211p.minPowerLevel -110dBm
param *.**.nic.phy80211p.useNoiseFloor true
param *.**.nic.phy80211p.noiseFloor -98dBm
param *.**.nic.phy80211p.decider "xmldoc(\"config.xml\")"
param *.**.nic.phy80211p.analogueModels "xmldoc(\"config.xml\")"
param *.**.nic.phy80211p.usePropagationDelay true
param *.**.nic.phy80211p.antenna "xmldoc(\"antenna.xml\", \"/root/Antenna[@id='monopole']\")"
param *.node[*].nic.phy80211p.antennaOffsetY "0 m"
param *.node[*].nic.phy80211p.antennaOffsetZ "1.895 m"
param *.node[*].applType "\"TraCIDemo11p\""
param *.node[*].appl.headerLength "80 bit"
param *.node[*].appl.sendBeacons false
param *.node[*].appl.dataOnSch false
param *.node[*].appl.beaconInterval 1s
param *.node[*].veinsmobility.x 0
param *.node[*].veinsmobility.y 0
param *.node[*].veinsmobility.z 0
param *.node[*].veinsmobility.setHostSpeed false
param *.node[*0].veinsmobility.accidentCount 1
param *.node[*0].veinsmobility.accidentStart 73s
param *.node[*0].veinsmobility.accidentDuration 50s

vector 0 RSUExampleScenario.node[0].veinsmobility posx ETV
vector 1 RSUExampleScenario.node[0].veinsmobility posy ETV
vector 2 RSUExampleScenario.node[0].veinsmobility speed ETV
vector 3 RSUExampleScenario.node[0].veinsmobility acceleration ETV
vector 4 RSUExampleScenario.node[0].veinsmobility co2emission ETV
vector 5 RSUExampleScenario.node[1].veinsmobility posx ETV
vector 6 RSUExampleScenario.node[1].veinsmobility posy ETV
vector 7 RSUExampleScenario.node[1].veinsmobility speed ETV
vector 8 RSUExampleScenario.node[1].veinsmobility acceleration ETV
vector 9 RSUExampleScenario.node[1].veinsmobility co2emission ETV
vector 10 RSUExampleScenario.node[2].veinsmobility posx ETV
vector 11 RSUExampleScenario.node[2].veinsmobility posy ETV
vector 12 RSUExampleScenario.node[2].veinsmobility speed ETV
vector 13 RSUExampleScenario.node[2].veinsmobility acceleration ETV
vector 14 RSUExampleScenario.node[2].veinsmobility co2emission ETV
vector 15 RSUExampleScenario.node[3].veinsmobility posx ETV
vector 16 RSUExampleScenario.node[3].veinsmobility posy ETV
vector 17 RSUExampleScenario.node[3].veinsmobility speed ETV
vector 18 RSUExampleScenario.node[3].veinsmobility acceleration ETV
vector 19 RSUExampleScenario.node[3].veinsmobility co2emission ETV
vector 20 RSUExampleScenario.node[4].veinsmobility posx ETV
vector 21 RSUExampleScenario.node[4].veinsmobility posy ETV
vector 22 RSUExampleScenario.node[4].veinsmobility speed ETV
vector 23 RSUExampleScenario.node[4].veinsmobility acceleration ETV
vector 24 RSUExampleScenario.node[4].veinsmobility co2emission ETV
vector 25 RSUExampleScenario.node[5].veinsmobility posx ETV
vector 26 RSUExampleScenario.node[5].veinsmobility posy ETV
vector 27 RSUExampleScenario.node[5].veinsmobility speed ETV
vector 28 RSUExampleScenario.node[5].veinsmobility acceleration ETV
vector 29 RSUExampleScenario.node[5].veinsmobility co2emission ETV
vector 30 RSUExampleScenario.node[6].veinsmobility posx ETV
vector 31 RSUExampleScenario.node[6].veinsmobility posy ETV
vector 32 RSUExampleScenario.node[6].veinsmobility speed ETV
vector 33 RSUExampleScenario.node[6].veinsmobility acceleration ETV
vector 34 RSUExampleScenario.node[6].veinsmobility co2emission ETV
vector 35 RSUExampleScenario.node[7].veinsmobility posx ETV
vector 36 RSUExampleScenario.node[7].veinsmobility posy ETV
vector 37 RSUExampleScenario.node[7].veinsmobility speed ETV
vector 38 RSUExampleScenario.node[7].veinsmobility acceleration ETV
vector 39 RSUExampleScenario.node[7].veinsmobility co2emission ETV
vector 40 RSUExampleScenario.node[8].veinsmobility posx ETV
vector 41 RSUExampleScenario.node[8].veinsmobility posy ETV
vector 42 RSUExampleScenario.node[8].veinsmobility speed ETV
vector 43 RSUExampleScenario.node[8].veinsmobility acceleration ETV
vector 44 RSUExampleScenario.node[8].veinsmobility co2emission ETV
vector 45 RSUExampleScenario.node[9].veinsmobility posx ETV
vector 46 RSUExampleScenario.node[9].veinsmobility posy ETV
vector 47 RSUExampleScenario.node[9].veinsmobility speed ETV
vector 48 RSUExampleScenario.node[9].veinsmobility acceleration ETV
vector 49 RSUExampleScenario.node[9].veinsmobility co2emission ETV
vector 50 RSUExampleScenario.node[10].veinsmobility posx ETV
vector 51 RSUExampleScenario.node[10].veinsmobility posy ETV
vector 52 RSUExampleScenario.node[10].veinsmobility speed ETV
vector 53 RSUExampleScenario.node[10].veinsmobility acceleration ETV
vector 54 RSUExampleScenario.node[10].veinsmobility co2emission ETV
vector 55 RSUExampleScenario.node[11].veinsmobility posx ETV
vector 56 RSUExampleScenario.node[11].veinsmobility posy ETV
vector 57 RSUExampleScenario.node[11].veinsmobility speed ETV
vector 58 RSUExampleScenario.node[11].veinsmobility acceleration ETV
vector 59 RSUExampleScenario.node[11].veinsmobility co2emission ETV
vector 60 RSUExampleScenario.node[12].veinsmobility posx ETV
vector 61 RSUExampleScenario.node[12].veinsmobility posy ETV
vector 62 RSUExampleScenario.node[12].veinsmobility speed ETV
vector 63 RSUExampleScenario.node[12].veinsmobility acceleration ETV
vector 64 RSUExampleScenario.node[12].veinsmobility co2emission ETV
vector 65 RSUExampleScenario.node[13].veinsmobility posx ETV
vector 66 RSUExampleScenario.node[13].veinsmobility posy ETV
vector 67 RSUExampleScenario.node[13].veinsmobility speed ETV
vector 68 RSUExampleScenario.node[13].veinsmobility acceleration ETV
vector 69 RSUExampleScenario.node[13].veinsmobility co2emission ETV
vector 70 RSUExampleScenario.node[14].veinsmobility posx ETV
vector 71 RSUExampleScenario.node[14].veinsmobility posy ETV
vector 72 RSUExampleScenario.node[14].veinsmobility speed ETV
vector 73 RSUExampleScenario.node[14].veinsmobility acceleration ETV
vector 74 RSUExampleScenario.node[14].veinsmobility co2emission ETV
vector 75 RSUExampleScenario.node[15].veinsmobility posx ETV
vector 76 RSUExampleScenario.node[15].veinsmobility posy ETV
vector 77 RSUExampleScenario.node[15].veinsmobility speed ETV
vector 78 RSUExampleScenario.node[15].veinsmobility acceleration ETV
vector 79 RSUExampleScenario.node[15].veinsmobility co2emission ETV
vector 80 RSUExampleScenario.node[16].veinsmobility posx ETV
vector 81 RSUExampleScenario.node[16].veinsmobility posy ETV
vector 82 RSUExampleScenario.node[16].veinsmobility speed ETV
vector 83 RSUExampleScenario.node[16].veinsmobility acceleration ETV
vector 84 RSUExampleScenario.node[16].veinsmobility co2emission ETV
vector 85 RSUExampleScenario.node[17].veinsmobility posx ETV
vector 86 RSUExampleScenario.node[17].veinsmobility posy ETV
vector 87 RSUExampleScenario.node[17].veinsmobility speed ETV
vector 88 RSUExampleScenario.node[17].veinsmobility acceleration ETV
vector 89 RSUExampleScenario.node[17].veinsmobility co2emission ETV
vector 90 RSUExampleScenario.node[18].veinsmobility posx ETV
vector 91 RSUExampleScenario.node[18].veinsmobility posy ETV
vector 92 RSUExampleScenario.node[18].veinsmobility speed ETV
vector 93 RSUExampleScenario.node[18].veinsmobility acceleration ETV
vector 94 RSUExampleScenario.node[18].veinsmobility co2emission ETV
vector 95 RSUExampleScenario.node[19].veinsmobility posx ETV
vector 96 RSUExampleScenario.node[19].veinsmobility posy ETV
vector 97 RSUExampleScenario.node[19].veinsmobility speed ETV
vector 98 RSUExampleScenario.node[19].veinsmobility acceleration ETV
vector 99 RSUExampleScenario.node[19].veinsmobility co2emission ETV
vector 100 RSUExampleScenario.node[20].veinsmobility posx ETV
vector 101 RSUExampleScenario.node[20].veinsmobility posy ETV
vector 102 RSUExampleScenario.node[20].veinsmobility speed ETV
vector 103 RSUExampleScenario.node[20].veinsmobility acceleration ETV
vector 104 RSUExampleScenario.node[20].veinsmobility co2emission ETV
vector 105 RSUExampleScenario.node[21].veinsmobility posx ETV
vector 106 RSUExampleScenario.node[21].veinsmobility posy ETV
vector 107 RSUExampleScenario.node[21].veinsmobility speed ETV
vector 108 RSUExampleScenario.node[21].veinsmobility acceleration ETV
vector 109 RSUExampleScenario.node[21].veinsmobility co2emission ETV
vector 110 RSUExampleScenario.node[22].veinsmobility posx ETV
vector 111 RSUExampleScenario.node[22].veinsmobility posy ETV
vector 112 RSUExampleScenario.node[22].veinsmobility speed ETV
vector 113 RSUExampleScenario.node[22].veinsmobility acceleration ETV
vector 114 RSUExampleScenario.node[22].veinsmobility co2emission ETV
vector 115 RSUExampleScenario.node[23].veinsmobility posx ETV
vector 116 RSUExampleScenario.node[23].veinsmobility posy ETV
vector 117 RSUExampleScenario.node[23].veinsmobility speed ETV
vector 118 RSUExampleScenario.node[23].veinsmobility acceleration ETV
vector 119 RSUExampleScenario.node[23].veinsmobility co2emission ETV
vector 120 RSUExampleScenario.node[24].veinsmobility posx ETV
vector 121 RSUExampleScenario.node[24].veinsmobility posy ETV
vector 122 RSUExampleScenario.node[24].veinsmobility speed ETV
vector 123 RSUExampleScenario.node[24].veinsmobility acceleration ETV
vector 124 RSUExampleScenario.node[24].veinsmobility co2emission ETV
vector 125 RSUExampleScenario.node[25].veinsmobility posx ETV
vector 126 RSUExampleScenario.node[25].veinsmobility posy ETV
vector 127 RSUExampleScenario.node[25].veinsmobility speed ETV
vector 128 RSUExampleScenario.node[25].veinsmobility acceleration ETV
vector 129 RSUExampleScenario.node[25].veinsmobility co2emission ETV
vector 130 RSUExampleScenario.node[26].veinsmobility posx ETV
vector 131 RSUExampleScenario.node[26].veinsmobility posy ETV
vector 132 RSUExampleScenario.node[26].veinsmobility speed ETV
vector 133 RSUExampleScenario.node[26].veinsmobility acceleration ETV
vector 134 RSUExampleScenario.node[26].veinsmobility co2emission ETV
vector 135 RSUExampleScenario.node[27].veinsmobility posx ETV
vector 136 RSUExampleScenario.node[27].veinsmobility posy ETV
vector 137 RSUExampleScenario.node[27].veinsmobility speed ETV
vector 138 RSUExampleScenario.node[27].veinsmobility acceleration ETV
vector 139 RSUExampleScenario.node[27].veinsmobility co2emission ETV
vector 140 RSUExampleScenario.node[28].veinsmobility posx ETV
vector 141 RSUExampleScenario.node[28].veinsmobility posy ETV
vector 142 RSUExampleScenario.node[28].veinsmobility speed ETV
vector 143 RSUExampleScenario.node[28].veinsmobility acceleration ETV
vector 144 RSUExampleScenario.node[28].veinsmobility co2emission ETV
vector 145 RSUExampleScenario.node[29].veinsmobility posx ETV
vector 146 RSUExampleScenario.node[29].veinsmobility posy ETV
vector 147 RSUExampleScenario.node[29].veinsmobility speed ETV
vector 148 RSUExampleScenario.node[29].veinsmobility acceleration ETV
vector 149 RSUExampleScenario.node[29].veinsmobility co2emission ETV
vector 150 RSUExampleScenario.node[30].veinsmobility posx ETV
vector 151 RSUExampleScenario.node[30].veinsmobility posy ETV
vector 152 RSUExampleScenario.node[30].veinsmobility speed ETV
vector 153 RSUExampleScenario.node[30].veinsmobility acceleration ETV
vector 154 RSUExampleScenario.node[30].veinsmobility co2emission ETV
vector 155 RSUExampleScenario.node[31].veinsmobility posx ETV
vector 156 RSUExampleScenario.node[31].veinsmobility posy ETV
vector 157 RSUExampleScenario.node[31].veinsmobility speed ETV
vector 158 RSUExampleScenario.node[31].veinsmobility acceleration ETV
vector 159 RSUExampleScenario.node[31].veinsmobility co2emission ETV
vector 160 RSUExampleScenario.node[32].veinsmobility posx ETV
vector 161 RSUExampleScenario.node[32].veinsmobility posy ETV
vector 162 RSUExampleScenario.node[32].veinsmobility speed ETV
vector 163 RSUExampleScenario.node[32].veinsmobility acceleration ETV
vector 164 RSUExampleScenario.node[32].veinsmobility co2emission ETV
vector 165 RSUExampleScenario.node[33].veinsmobility posx ETV
vector 166 RSUExampleScenario.node[33].veinsmobility posy ETV
vector 167 RSUExampleScenario.node[33].veinsmobility speed ETV
vector 168 RSUExampleScenario.node[33].veinsmobility acceleration ETV
vector 169 RSUExampleScenario.node[33].veinsmobility co2emission ETV
vector 170 RSUExampleScenario.node[34].veinsmobility posx ETV
vector 171 RSUExampleScenario.node[34].veinsmobility posy ETV
vector 172 RSUExampleScenario.node[34].veinsmobility speed ETV
vector 173 RSUExampleScenario.node[34].veinsmobility acceleration ETV
vector 174 RSUExampleScenario.node[34].veinsmobility co2emission ETV
vector 175 RSUExampleScenario.node[35].veinsmobility posx ETV
vector 176 RSUExampleScenario.node[35].veinsmobility posy ETV
vector 177 RSUExampleScenario.node[35].veinsmobility speed ETV
vector 178 RSUExampleScenario.node[35].veinsmobility acceleration ETV
vector 179 RSUExampleScenario.node[35].veinsmobility co2emission ETV
vector 180 RSUExampleScenario.node[36].veinsmobility posx ETV
vector 181 RSUExampleScenario.node[36].veinsmobility posy ETV
vector 182 RSUExampleScenario.node[36].veinsmobility speed ETV
vector 183 RSUExampleScenario.node[36].veinsmobility acceleration ETV
vector 184 RSUExampleScenario.node[36].veinsmobility co2emission ETV
vector 185 RSUExampleScenario.node[37].veinsmobility posx ETV
vector 186 RSUExampleScenario.node[37].veinsmobility posy ETV
vector 187 RSUExampleScenario.node[37].veinsmobility speed ETV
vector 188 RSUExampleScenario.node[37].veinsmobility acceleration ETV
vector 189 RSUExampleScenario.node[37].veinsmobility co2emission ETV
vector 190 RSUExampleScenario.node[38].veinsmobility posx ETV
vector 191 RSUExampleScenario.node[38].veinsmobility posy ETV
vector 192 RSUExampleScenario.node[38].veinsmobility speed ETV
vector 193 RSUExampleScenario.node[38].veinsmobility acceleration ETV
vector 194 RSUExampleScenario.node[38].veinsmobility co2emission ETV
vector 195 RSUExampleScenario.node[39].veinsmobility posx ETV
vector 196 RSUExampleScenario.node[39].veinsmobility posy ETV
vector 197 RSUExampleScenario.node[39].veinsmobility speed ETV
vector 198 RSUExampleScenario.node[39].veinsmobility acceleration ETV
vector 199 RSUExampleScenario.node[39].veinsmobility co2emission ETV
vector 200 RSUExampleScenario.node[40].veinsmobility posx ETV
vector 201 RSUExampleScenario.node[40].veinsmobility posy ETV
vector 202 RSUExampleScenario.node[40].veinsmobility speed ETV
vector 203 RSUExampleScenario.node[40].veinsmobility acceleration ETV
vector 204 RSUExampleScenario.node[40].veinsmobility co2emission ETV
vector 205 RSUExampleScenario.node[41].veinsmobility posx ETV
vector 206 RSUExampleScenario.node[41].veinsmobility posy ETV
vector 207 RSUExampleScenario.node[41].veinsmobility speed ETV
vector 208 RSUExampleScenario.node[41].veinsmobility acceleration ETV
vector 209 RSUExampleScenario.node[41].veinsmobility co2emission ETV
vector 210 RSUExampleScenario.node[42].veinsmobility posx ETV
vector 211 RSUExampleScenario.node[42].veinsmobility posy ETV
vector 212 RSUExampleScenario.node[42].veinsmobility speed ETV
vector 213 RSUExampleScenario.node[42].veinsmobility acceleration ETV
vector 214 RSUExampleScenario.node[42].veinsmobility co2emission ETV
vector 215 RSUExampleScenario.node[43].veinsmobility posx ETV
vector 216 RSUExampleScenario.node[43].veinsmobility posy ETV
vector 217 RSUExampleScenario.node[43].veinsmobility speed ETV
vector 218 RSUExampleScenario.node[43].veinsmobility acceleration ETV
vector 219 RSUExampleScenario.node[43].veinsmobility co2emission ETV
vector 220 RSUExampleScenario.node[44].veinsmobility posx ETV
vector 221 RSUExampleScenario.node[44].veinsmobility posy ETV
vector 222 RSUExampleScenario.node[44].veinsmobility speed ETV
vector 223 RSUExampleScenario.node[44].veinsmobility acceleration ETV
vector 224 RSUExampleScenario.node[44].veinsmobility co2emission ETV
vector 225 RSUExampleScenario.node[45].veinsmobility posx ETV
vector 226 RSUExampleScenario.node[45].veinsmobility posy ETV
vector 227 RSUExampleScenario.node[45].veinsmobility speed ETV
vector 228 RSUExampleScenario.node[45].veinsmobility acceleration ETV
vector 229 RSUExampleScenario.node[45].veinsmobility co2emission ETV
vector 230 RSUExampleScenario.node[46].veinsmobility posx ETV
vector 231 RSUExampleScenario.node[46].veinsmobility posy ETV
vector 232 RSUExampleScenario.node[46].veinsmobility speed ETV
vector 233 RSUExampleScenario.node[46].veinsmobility acceleration ETV
vector 234 RSUExampleScenario.node[46].veinsmobility co2emission ETV
vector 235 RSUExampleScenario.node[47].veinsmobility posx ETV
vector 236 RSUExampleScenario.node[47].veinsmobility posy ETV
vector 237 RSUExampleScenario.node[47].veinsmobility speed ETV
vector 238 RSUExampleScenario.node[47].veinsmobility acceleration ETV
vector 239 RSUExampleScenario.node[47].veinsmobility co2emission ETV
vector 240 RSUExampleScenario.node[48].veinsmobility posx ETV
vector 241 RSUExampleScenario.node[48].veinsmobility posy ETV
vector 242 RSUExampleScenario.node[48].veinsmobility speed ETV
vector 243 RSUExampleScenario.node[48].veinsmobility acceleration ETV
vector 244 RSUExampleScenario.node[48].veinsmobility co2emission ETV
vector 245 RSUExampleScenario.node[49].veinsmobility posx ETV
vector 246 RSUExampleScenario.node[49].veinsmobility posy ETV
vector 247 RSUExampleScenario.node[49].veinsmobility speed ETV
vector 248 RSUExampleScenario.node[49].veinsmobility acceleration ETV
vector 249 RSUExampleScenario.node[49].veinsmobility co2emission ETV
vector 250 RSUExampleScenario.node[50].veinsmobility posx ETV
vector 251 RSUExampleScenario.node[50].veinsmobility posy ETV
vector 252 RSUExampleScenario.node[50].veinsmobility speed ETV
vector 253 RSUExampleScenario.node[50].veinsmobility acceleration ETV
vector 254 RSUExampleScenario.node[50].veinsmobility co2emission ETV
vector 255 RSUExampleScenario.node[51].veinsmobility posx ETV
vector 256 RSUExampleScenario.node[51].veinsmobility posy ETV
vector 257 RSUExampleScenario.node[51].veinsmobility speed ETV
vector 258 RSUExampleScenario.node[51].veinsmobility acceleration ETV
vector 259 RSUExampleScenario.node[51].veinsmobility co2emission ETV
vector 260 RSUExampleScenario.node[52].veinsmobility posx ETV
vector 261 RSUExampleScenario.node[52].veinsmobility posy ETV
vector 262 RSUExampleScenario.node[52].veinsmobility speed ETV
vector 263 RSUExampleScenario.node[52].veinsmobility acceleration ETV
vector 264 RSUExampleScenario.node[52].veinsmobility co2emission ETV
vector 265 RSUExampleScenario.node[53].veinsmobility posx ETV
vector 266 RSUExampleScenario.node[53].veinsmobility posy ETV
vector 267 RSUExampleScenario.node[53].veinsmobility speed ETV
vector 268 RSUExampleScenario.node[53].veinsmobility acceleration ETV
vector 269 RSUExampleScenario.node[53].veinsmobility co2emission ETV
vector 270 RSUExampleScenario.node[54].veinsmobility posx ETV
vector 271 RSUExampleScenario.node[54].veinsmobility posy ETV
vector 272 RSUExampleScenario.node[54].veinsmobility speed ETV
vector 273 RSUExampleScenario.node[54].veinsmobility acceleration ETV
vector 274 RSUExampleScenario.node[54].veinsmobility co2emission ETV
vector 275 RSUExampleScenario.node[55].veinsmobility posx ETV
vector 276 RSUExampleScenario.node[55].veinsmobility posy ETV
vector 277 RSUExampleScenario.node[55].veinsmobility speed ETV
vector 278 RSUExampleScenario.node[55].veinsmobility acceleration ETV
vector 279 RSUExampleScenario.node[55].veinsmobility co2emission ETV
vector 280 RSUExampleScenario.node[56].veinsmobility posx ETV
vector 281 RSUExampleScenario.node[56].veinsmobility posy ETV
vector 282 RSUExampleScenario.node[56].veinsmobility speed ETV
vector 283 RSUExampleScenario.node[56].veinsmobility acceleration ETV
vector 284 RSUExampleScenario.node[56].veinsmobility co2emission ETV
vector 285 RSUExampleScenario.node[57].veinsmobility posx ETV
vector 286 RSUExampleScenario.node[57].veinsmobility posy ETV
vector 287 RSUExampleScenario.node[57].veinsmobility speed ETV
vector 288 RSUExampleScenario.node[57].veinsmobility acceleration ETV
vector 289 RSUExampleScenario.node[57].veinsmobility co2emission ETV
vector 290 RSUExampleScenario.node[58].veinsmobility posx ETV
vector 291 RSUExampleScenario.node[58].veinsmobility posy ETV
vector 292 RSUExampleScenario.node[58].veinsmobility speed ETV
vector 293 RSUExampleScenario.node[58].veinsmobility acceleration ETV
vector 294 RSUExampleScenario.node[58].veinsmobility co2emission ETV
vector 295 RSUExampleScenario.node[59].veinsmobility posx ETV
vector 296 RSUExampleScenario.node[59].veinsmobility posy ETV
vector 297 RSUExampleScenario.node[59].veinsmobility speed ETV
vector 298 RSUExampleScenario.node[59].veinsmobility acceleration ETV
vector 299 RSUExampleScenario.node[59].veinsmobility co2emission ETV
vector 300 RSUExampleScenario.node[60].veinsmobility posx ETV
vector 301 RSUExampleScenario.node[60].veinsmobility posy ETV
vector 302 RSUExampleScenario.node[60].veinsmobility speed ETV
vector 303 RSUExampleScenario.node[60].veinsmobility acceleration ETV
vector 304 RSUExampleScenario.node[60].veinsmobility co2emission ETV
vector 305 RSUExampleScenario.node[61].veinsmobility posx ETV
vector 306 RSUExampleScenario.node[61].veinsmobility posy ETV
vector 307 RSUExampleScenario.node[61].veinsmobility speed ETV
vector 308 RSUExampleScenario.node[61].veinsmobility acceleration ETV
vector 309 RSUExampleScenario.node[61].veinsmobility co2emission ETV
vector 310 RSUExampleScenario.node[62].veinsmobility posx ETV
vector 311 RSUExampleScenario.node[62].veinsmobility posy ETV
vector 312 RSUExampleScenario.node[62].veinsmobility speed ETV
vector 313 RSUExampleScenario.node[62].veinsmobility acceleration ETV
vector 314 RSUExampleScenario.node[62].veinsmobility co2emission ETV
vector 315 RSUExampleScenario.node[63].veinsmobility posx ETV
vector 316 RSUExampleScenario.node[63].veinsmobility posy ETV
vector 317 RSUExampleScenario.node[63].veinsmobility speed ETV
vector 318 RSUExampleScenario.node[63].veinsmobility acceleration ETV
vector 319 RSUExampleScenario.node[63].veinsmobility co2emission ETV
vector 320 RSUExampleScenario.node[64].veinsmobility posx ETV
vector 321 RSUExampleScenario.node[64].veinsmobility posy ETV
vector 322 RSUExampleScenario.node[64].veinsmobility speed ETV
vector 323 RSUExampleScenario.node[64].veinsmobility acceleration ETV
vector 324 RSUExampleScenario.node[64].veinsmobility co2emission ETV
vector 325 RSUExampleScenario.node[65].veinsmobility posx ETV
vector 326 RSUExampleScenario.node[65].veinsmobility posy ETV
vector 327 RSUExampleScenario.node[65].veinsmobility speed ETV
vector 328 RSUExampleScenario.node[65].veinsmobility acceleration ETV
vector 329 RSUExampleScenario.node[65].veinsmobility co2emission ETV
vector 330 RSUExampleScenario.node[66].veinsmobility posx ETV
vector 331 RSUExampleScenario.node[66].veinsmobility posy ETV
vector 332 RSUExampleScenario.node[66].veinsmobility speed ETV
4	4	3	3.9690439751639
4	5	4	4.8734986088453
4	6	5	6.2068327255978
4	7	6	7.2118621755177
4	8	7	8.2287933875323
4	9	8	3.0242689444712
4	10	9	2.410214010884
4	11	10	1.8042481683123
4	12	11	2.2766031729043
4	13	12	1.9910577970912
4	14	13	1.9816353748441
4	15	14	2.0006543718409
4	16	15	2.0156733927738
4	17	16	1.7275773004983
4	18	17	2.3491339177603
4	19	18	0.973
4	20	19	0.973
4	21	20	0.973
4	22	21	0.973
4	23	22	2.9202656039732
4	24	23	5.1829022112917
4	25	24	5.8409555110412
4	26	25	7.0478875101329
4	27	26	7.1923395024802
4	28	27	5.7035699225295
4	29	28	1.8542576609033
4	30	29	2.071579633465
4	31	30	2.033070591514
4	32	31	1.9708367886165
4	33	32	1.958947003716
4	34	33	2.1937519865362
4	35	34	2.0148851452489
4	36	35	1.9494556216079
4	37	36	2.1233313202265
4	38	37	2.0980065652139
4	39	38	2.0564960049267
4	40	39	1.8849385975403
4	41	40	2.0135217775437
4	42	41	2.1970455854856
4	43	42	2.0114927076469
4	44	43	1.8022364453996
4	45	44	2.4028055099799
4	46	45	1.7398103572212
4	47	46	2.0704874226364
4	48	47	1.9551479348163
4	49	48	2.0622988460067
4	50	49	2.1436920788903
4	51	50	1.9709420801269
4	52	51	2.2404713242546
4	53	52	1.6811177558643
4	54	53	2.1687186093148
4	55	54	2.068228125812
4	56	55	2.1189750795911
4	57	56	1.9158044765909
4	58	57	2.0646522515523
4	59	58	1.8795950099662
4	60	59	2.40991582857
4	61	60	2.060217812421
4	62	61	1.6101508281289
4	63	62	2.0174438220444
4	64	63	2.2227433300183
4	65	64	2.1956409213675
4	66	65	1.7698327313004
4	67	66	1.9334542286895
4	68	67	2.2331933794582
4	69	68	1.8269584545957
4	70	69	2.4094828911751
4	71	70	1.8423934072781
4	72	71	2.1030929112895
4	73	72	1.9463691603324
4	74	73	0.973
4	76	74	0.973
4	77	75	0.973
4	78	76	0.973
4	79	77	0.973
4	80	78	0.973
4	81	79	0.973
4	82	80	0.973
4	83	81	0.973
4	84	82	0.973
4	85	83	0.973
4	86	84	0.973
4	87	85	0.973
4	206	86	0.973
4	207	87	0.973
4	2035	88	0.973
4	2036	89	0.973
4	5345	90	0.973
4	5346	91	0.973
4	6154	92	0.973
4	6155	93	0.973
4	6301	94	0.973
4	6302	95	0.973
4	6303	96	0.973
4	6304	97	0.973
4	6305	98	0.973
4	6306	99	0.973
4	6307	100	0.973
4	6308	101	0.973
4	6309	102	0.973
4	6310	103	0.973
4	6312	104	0.973
4	6313	105	0.973
4	6314	106	0.973
4	6315	107	0.973
4	6316	108	0.973
4	6317	109	0.973
4	6318	110	0.973
4	6319	111	0.973
4	6320	112	0.973
4	6321	113	0.973
4	6322	114	0.973
4	6323	115	0.973
4	6324	116	0.973
4	6325	117	0.973
4	6326	118	0.973
4	6327	119	0.973
4	6328	120	0.973
4	6329	121	0.973
4	6330	122	0.973
4	6331	123	0.973
4	6333	124	2.5316330721409
4	6334	125	3.3088600252674
4	6335	126	1.4716786611616
4	6523	127	5.1743780037901
4	6524	128	5.014299851029
4	8388	129	6.3968900574393
4	8389	130	7.808621277937
4	8755	131	7.3712753026615
4	8756	132	2.3673853427263
4	8964	133	1.8736469224468
4	8966	134	2.0890641969687
4	8967	135	1.7847118530456
4	8968	136	2.424471041835
4	8969	137	1.6026273215021
4	8970	138	2.1844508262857
4	8971	139	2.1329165940934
4	8972	140	1.9202811456913
4	8973	141	2.2570252135652
4	8974	142	1.7092124494953
4	8975	143	2.2001887307963
4	8976	144	2.066390382259
4	8977	145	2.2144000026955
4	8978	146	2.0238570991803
4	8979	147	1.6169631889517
4	8980	148	2.3109593499213
4	8981	149	1.7893718415076
4	8982	150	2.2787983736996
4	8983	151	1.8406567093162
4	8984	152	2.2344425784029
4	8985	153	1.9315664771292
4	8987	154	2.0584510291845
4	8988	155	2.0003032874626
4	8989	156	2.2468034744443
4	8990	157	2.0028558603956
4	8991	158	1.7209579306654
4	8992	159	2.0580497434693
4	8993	160	2.0638924916582
4	8994	161	2.2562171353258
4	8995	162	1.848425684793
4	8996	163	1.9519878268263
4	8998	164	2.3014095817943
4	8999	165	1.7153104220625
4	9000	166	2.2847783600702
4	9001	167	1.7852646870096
4	9002	168	2.2743994637888
4	9003	169	1.8614928595242
4	9004	170	2.3038818863713
4	9005	171	1.7490787370998
4	9006	172	2.3098193087229
4	9007	173	1.8301868428965
4	9008	174	1.9392561410404
4	9009	175	2.3484511842005
4	9010	176	1.6735950913231
4	9011	177	2.2194127477174
4	9012	178	1.968353660952
4	9013	179	1.8894376534924
4	9014	180	2.0591648043872
4	9015	181	2.4083231291615
4	9016	182	1.8846644456448
4	9017	183	2.0645024571429
4	9019	184	1.9142910272826
4	9020	185	2.1908256330978
4	9021	186	1.8420819003082
4	9022	187	2.0085786700786
4	9023	188	2.0064858104365
4	9024	189	1.9561424835442
4	9025	190	2.0100053489025
4	9026	191	2.3086832512815
4	9027	192	1.7383196097801
4	9028	193	2.1527532510822
4	9030	194	2.0916121140371
4	9031	195	1.9814255239671
4	9032	196	2.1464619254623
4	9033	197	1.869129501393
4	9034	198	2.2179198215622
4	9035	199	2.1069552891904
4	9036	200	2.0393339996775
3	4	3	1.8350836683181
3	5	4	1.8271086537745
3	6	5	1.9700068054721
3	7	6	1.9440954117314
3	8	7	1.9251633647294
3	9	8	0.3043542271355
3	10	9	0.11476667602547
3	11	10	-0.064753184660804
3	12	11	0.074470334358047
3	13	12	-0.010534379172604
3	14	13	-0.012970053050667
3	15	14	-0.0070667944545857
3	16	15	-0.0024941215664143
3	17	16	-0.086695689375047
3	18	17	0.096991665165405
3	19	18	-1.1627897896615
3	20	19	-3.2370594858455
3	21	20	-2.9603488400973
3	22	21	-2.5337033977468
3	23	22	1.2329252061435
3	24	23	2.094907346114
3	25	24	1.9011793446587
3	26	25	1.9599004447064
3	27	26	1.6991365455417
3	28	27	1.0915354850417
3	29	28	-0.052010718395469
3	30	29	0.01248028835049
3	31	30	0.00096433614380587
3	32	31	-0.017099415783305
3	33	32	-0.020069704249035
3	34	33	0.048505362290889
3	35	34	-0.0046603607200097
3	36	35	-0.023492567082867
3	37	36	0.027538535709027
3	38	37	0.01937479801709
3	39	38	0.0068101624515826
3	40	39	-0.043050197220873
3	41	40	-0.0045451738196416
3	42	41	0.048586284592748
3	43	42	-0.0064147925446747
3	44	43	-0.06697850137949
3	45	44	0.10845056370599
3	46	45	-0.086184235455002
3	47	46	0.012157847334166
3	48	47	-0.02162330031395
3	49	48	0.01007445028983
3	50	49	0.033280818574131
3	51	50	-0.017653799874243
3	52	51	0.060609251707794
3	53	52	-0.10310439425055
3	54	53	0.04136053440161
3	55	54	0.011047466655729
3	56	55	0.025352031746879
3	57	56	-0.034127474795095
3	58	57	0.0099455157318147
3	59	58	-0.043998417782131
3	60	59	0.11027641468448
3	61	60	0.0063770599314008
3	62	61	-0.12437126584118
3	63	62	-0.002486674915998
3	64	63	0.056955466950312
3	65	64	0.047281749872491
3	66	65	-0.077224377754611
3	67	66	-0.027593536539934
3	68	67	0.059983630857896
3	69	68	-0.05946393133374
3	70	69	0.11053127134917
3	71	70	-0.056278499371837
3	72	71	0.020738100388552
3	73	72	-0.02517115517985
3	74	73	-1.6366440532162
3	76	74	-4.5
3	77	75	-4.5
3	78	76	-3.2848537642377
3	79	77	0
3	80	78	0
3	81	79	0
3	82	80	0
3	83	81	0
3	84	82	0
3	85	83	0
3	86	84	0
3	87	85	0
3	206	86	0
3	207	87	0
3	2035	88	0
3	2036	89	0
3	5345	90	0
3	5346	91	0
3	6154	92	0
3	6155	93	0
3	6301	94	0
3	6302	95	0
3	6303	96	0
3	6304	97	0
3	6305	98	0
3	6306	99	0
3	6307	100	0
3	6308	101	0
3	6309	102	0
3	6310	103	0
3	6312	104	0
3	6313	105	0
3	6314	106	0
3	6315	107	0
3	6316	108	0
3	6317	109	0
3	6318	110	0
3	6319	111	0
3	6320	112	0
3	6321	113	0
3	6322	114	0
3	6323	115	0
3	6324	116	0
3	6325	117	0
3	6326	118	0
3	6327	119	0
3	6328	120	0
3	6329	121	0
3	6330	122	0
3	6331	123	0
3	6333	124	2.3297445651014
3	6334	125	1.9331664239709
3	6335	126	0.13376009473571
3	6523	127	2.3007281390787
3	6524	128	1.7016358621838
3	8388	129	1.891119004183
3	8389	130	2.0029415552062
3	8755	131	1.5963933747577
3	8756	132	0.097846636637113
3	8964	133	-0.047345833701547
3	8966	134	0.016261815349571
3	8967	135	-0.072407276278827
3	8968	136	0.1143618238857
3	8969	137	-0.12656636003871
3	8970	138	0.045922909667716
3	8971	139	0.029595267204567
3	8972	140	-0.032748176157474
3	8973	141	0.065372841688804
3	8974	142	-0.09499355140375
3	8975	143	0.050028323524167
3	8976	144	0.0098797714314429
3	8977	145	0.05213887388585
3	8978	146	-0.0042207782180039
3	8979	147	-0.12225061865523
3	8980	148	0.08236208234448
3	8981	149	-0.070962024249601
3	8982	150	0.072734668047632
3	8983	151	-0.056071815898177
3	8984	152	0.059429106807803
3	8985	153	-0.029769370523281
3	8987	154	0.0077902077697214
3	8988	155	-0.0092483466956761
3	8989	156	0.062029640041292
3	8990	157	-0.010033515868709
3	8991	158	-0.091538168769329
3	8992	159	0.0089064160035921
3	8993	160	0.010329422608484
3	8994	161	0.065415071730968
3	8995	162	-0.054257343441714
3	8996	163	-0.022728252974339
3	8998	164	0.078772114845924
3	8999	165	-0.093068624779116
3	9000	166	0.074496628276538
3	9001	167	-0.072214205316268
3	9002	168	0.07143811681075
3	9003	169	-0.05000507550314
3	9004	170	0.079152790252119
3	9005	171	-0.083447758869733
3	9006	172	0.081003105540294
3	9007	173	-0.059789288458415
3	9008	174	-0.026524975288194
3	9009	175	0.092249054922723
3	9010	176	-0.10555711968802
3	9011	177	0.055679783248342
3	9012	178	-0.018528794979211
3	9013	179	-0.040933821906801
3	9014	180	0.0095189137756826
3	9015	181	0.109635523092
3	9016	182	-0.044399497108534
3	9017	183	0.0088107110303834
3	9019	184	-0.034862719411031
3	9020	185	0.045980718550272
3	9021	186	-0.056110908724367
3	9022	187	-0.0062783119664527
3	9023	188	-0.0067022539116444
3	9024	189	-0.021118161173071
3	9025	190	-0.0048720179195527
3	9026	191	0.081474161630032
3	9027	192	-0.085999218984508
3	9028	193	0.036745522869751
3	9030	194	0.017937543757725
3	9031	195	-0.014466304362285
3	9032	196	0.033649388996418
3	9033	197	-0.047582250081467
3	9034	198	0.054666622818912
3	9035	199	0.020998626307119
3	9036	200	0.00089298073435273
2	3	2	3.9572089270348
2	4	3	5.7922925953529
2	5	4	7.6194012491274
2	6	5	9.5894080545995
2	7	6	11.533503466331
2	8	7	13.45866683106
2	9	8	13.763021058196
2	10	9	13.877787734221
2	11	10	13.81303454956
2	12	11	13.887504883918
2	13	12	13.876970504746
2	14	13	13.864000451695
2	15	14	13.856933657241
2	16	15	13.854439535674
2	17	16	13.767743846299
2	18	17	13.864735511465
2	19	18	12.701945721803
2	20	19	9.4648862359575
2	21	20	6.5045373958602
2	22	21	3.9708339981135
2	23	22	5.203759204257
2	24	23	7.298666550371
2	25	24	9.1998458950297
2	26	25	11.159746339736
2	27	26	12.858882885278
2	28	27	13.95041837032
2	29	28	13.898407651924
2	30	29	13.910887940275
2	31	30	13.911852276418
2	32	31	13.894752860635
2	33	32	13.874683156386
2	34	33	13.923188518677
2	35	34	13.918528157957
2	36	35	13.895035590874
2	37	36	13.922574126583
2	38	37	13.9419489246
2	39	38	13.948759087052
2	40	39	13.905708889831
2	41	40	13.901163716011
2	42	41	13.949750000604
2	43	42	13.943335208059
2	44	43	13.87635670668
2	45	44	13.984807270386
2	46	45	13.898623034931
2	47	46	13.910780882265
2	48	47	13.889157581951
2	49	48	13.899232032241
2	50	49	13.932512850815
2	51	50	13.914859050941
2	52	51	13.975468302649
2	53	52	13.872363908398
2	54	53	13.9137244428
2	55	54	13.924771909455
2	56	55	13.950123941202
2	57	56	13.915996466407
2	58	57	13.925941982139
2	59	58	13.881943564357
2	60	59	13.992219979041
2	61	60	13.998597038973
2	62	61	13.874225773131
2	63	62	13.871739098215
2	64	63	13.928694565166
2	65	64	13.975976315038
2	66	65	13.898751937284
2	67	66	13.871158400744
2	68	67	13.931142031602
2	69	68	13.871678100268
2	70	69	13.982209371617
2	71	70	13.925930872245
2	72	71	13.946668972634
2	73	72	13.921497817454
2	74	73	12.284853764238
2	76	74	7.7848537642377
2	77	75	3.2848537642377
2	78	76	0
2	79	77	0
2	80	78	0
2	81	79	0
2	82	80	0
2	83	81	0
2	84	82	0
2	85	83	0
2	86	84	0
2	87	85	0
2	206	86	0
2	207	87	0
2	2035	88	0
2	2036	89	0
2	5345	90	0
2	5346	91	0
2	6154	92	0
2	6155	93	0
2	6301	94	0
2	6302	95	0
2	6303	96	0
2	6304	97	0
2	6305	98	0
2	6306	99	0
2	6307	100	0
2	6308	101	0
2	6309	102	0
2	6310	103	0
2	6312	104	0
2	6313	105	0
2	6314	106	0
2	6315	107	0
2	6316	108	0
2	6317	109	0
2	6318	110	0
2	6319	111	0
2	6320	112	0
2	6321	113	0
2	6322	114	0
2	6323	115	0
2	6324	116	0
2	6325	117	0
2	6326	118	0
2	6327	119	0
2	6328	120	0
2	6329	121	0
2	6330	122	0
2	6331	123	0
2	6333	124	2.3297445651014
2	6334	125	4.2629109890724
2	6335	126	4.3966710838081
2	6523	127	6.6973992228868
2	6524	128	8.3990350850705
2	8388	129	10.290154089254
2	8389	130	12.29309564446
2	8755	131	13.889489019217
2	8756	132	13.987335655855
2	8964	133	13.939989822153
2	8966	134	13.956251637503
2	8967	135	13.883844361224
2	8968	136	13.998206185109
2	8969	137	13.871639825071
2	8970	138	13.917562734738
2	8971	139	13.947158001943
2	8972	140	13.914409825786
2	8973	141	13.979782667474
2	8974	142	13.884789116071
2	8975	143	13.934817439595
2	8976	144	13.944697211026
2	8977	145	13.996836084912
2	8978	146	13.992615306694
2	8979	147	13.870364688039
2	8980	148	13.952726770383
2	8981	149	13.881764746134
2	8982	150	13.954499414181
2	8983	151	13.898427598283
2	8984	152	13.957856705091
2	8985	153	13.928087334568
2	8987	154	13.935877542337
2	8988	155	13.926629195642
2	8989	156	13.988658835683
2	8990	157	13.978625319814
2	8991	158	13.887087151045
2	8992	159	13.895993567049
2	8993	160	13.906322989657
2	8994	161	13.971738061388
2	8995	162	13.917480717946
2	8996	163	13.894752464972
2	8998	164	13.973524579818
2	8999	165	13.880455955039
2	9000	166	13.954952583315
2	9001	167	13.882738377999
2	9002	168	13.95417649481
2	9003	169	13.904171419307
2	9004	170	13.983324209559
2	9005	171	13.899876450689
2	9006	172	13.980879556229
2	9007	173	13.921090267771
2	9008	174	13.894565292483
2	9009	175	13.986814347405
2	9010	176	13.881257227717
2	9011	177	13.936937010966
2	9012	178	13.918408215987
2	9013	179	13.87747439408
2	9014	180	13.886993307855
2	9015	181	13.996628830947
2	9016	182	13.952229333839
2	9017	183	13.961040044869
2	9019	184	13.926177325458
2	9020	185	13.972158044009
2	9021	186	13.916047135284
2	9022	187	13.909768823318
2	9023	188	13.903066569406
2	9024	189	13.881948408233
2	9025	190	13.877076390313
2	9026	191	13.958550551943
2	9027	192	13.872551332959
2	9028	193	13.909296855829
2	9030	194	13.927234399586
2	9031	195	13.912768095224
2	9032	196	13.946417484221
2	9033	197	13.898835234139
2	9034	198	13.953501856958
2	9035	199	13.974500483265
2	9036	200	13.975393463999
1	2	1	1578.4416120471
1	3	2	1579.4966245294
1	4	3	1581.2776015159
1	5	4	1586.1653365986
1	6	5	1592.3755327258
1	7	6	1599.9554281235
1	8	7	1608.9150987137
1	9	8	1618.7330828821
1	10	9	1628.5774648814
1	11	10	1638.4196562562
1	12	11	1648.4360301802
1	13	12	1660.0725704357
1	14	13	1672.8800310632
1	15	14	1681.6922949329
1	16	15	1690.9525972893
1	17	16	1695.3639500989
1	18	17	1697.2011958091
1	19	18	1698.541036698
1	20	19	1699.5699112993
1	21	20	1700.3040461661
1	22	21	1700.7837737445
1	23	22	1701.0583376894
1	24	23	1703.8447521525
1	25	24	1712.0460333815
1	26	25	1722.1372181661
1	27	26	1734.0981961433
1	28	27	1747.6328665474
1	29	28	1761.4906543829
1	30	29	1775.4009959176
1	31	30	1789.2945122393
1	32	31	1803.1846920336
1	33	32	1817.0826861728
1	34	33	1830.9873044016
1	35	34	1844.8958232021
1	36	35	1858.787373418
1	37	36	1872.6706152447
1	38	37	1886.5527931787
1	39	38	1900.4314930569
1	40	39	1914.3205429167
1	41	40	1928.2196500115
1	42	41	1942.0989239831
1	43	42	1955.9945893753
1	44	43	1969.8811024986
1	45	44	1983.7780732056
1	46	45	1997.6460498739
1	47	46	2011.5499500362
1	48	47	2025.4136744449
1	49	48	2039.3004943542
1	50	49	2053.1822455181
1	51	50	2067.0851366306
1	52	51	2080.9781504953
1	53	52	2094.8620636659
1	54	53	2107.5958017986
1	55	54	2116.50443774
1	56	55	2120.966550488
1	57	56	2120.4964137897
1	58	57	2120.0263004107
1	59	58	2119.5562957739
1	60	59	2119.0856129043
1	61	60	2118.6154833902
1	62	61	2118.1451617796
1	63	62	2117.6747573502
1	64	63	2117.2052744217
1	65	64	2116.7349278545
1	66	65	2116.2643479006
1	67	66	2115.7947104117
1	68	67	2114.7714226404
1	69	68	2112.8172696698
1	70	69	2110.6040639561
1	71	70	2106.1301952414
1	72	71	2101.6563989418
1	73	72	2096.5653671324
1	74	73	2089.751967214
1	76	74	2084.7753551239
1	77	75	2082.0816266462
1	78	76	2081.5543324621
1	79	77	2081.5543324621
1	80	78	2081.5543324621
1	81	79	2081.5543324621
1	82	80	2081.5543324621
1	83	81	2081.5543324621
1	84	82	2081.5543324621
1	85	83	2081.5543324621
1	86	84	2081.5543324621
1	87	85	2081.5543324621
1	206	86	2081.5543324621
1	207	87	2081.5543324621
1	2035	88	2081.5543324621
1	2036	89	2081.5543324621
1	5345	90	2081.5543324621
1	5346	91	2081.5543324621
1	6154	92	2081.5543324621
1	6155	93	2081.5543324621
1	6301	94	2081.5543324621
1	6302	95	2081.5543324621
1	6303	96	2081.5543324621
1	6304	97	2081.5543324621
1	6305	98	2081.5543324621
1	6306	99	2081.5543324621
1	6307	100	2081.5543324621
1	6308	101	2081.5543324621
1	6309	102	2081.5543324621
1	6310	103	2081.5543324621
1	6312	104	2081.5543324621
1	6313	105	2081.5543324621
1	6314	106	2081.5543324621
1	6315	107	2081.5543324621
1	6316	108	2081.5543324621
1	6317	109	2081.5543324621
1	6318	110	2081.5543324621
1	6319	111	2081.5543324621
1	6320	112	2081.5543324621
1	6321	113	2081.5543324621
1	6322	114	2081.5543324621
1	6323	115	2081.5543324621
1	6324	116	2081.5543324621
1	6325	117	2081.5543324621
1	6326	118	2081.5543324621
1	6327	119	2081.5543324621
1	6328	120	2081.5543324621
1	6329	121	2081.5543324621
1	6330	122	2081.5543324621
1	6331	123	2081.5543324621
1	6333	124	2080.883513934
1	6334	125	2079.176101
1	6335	126	2077.1975434758
1	6523	127	2073.9226117739
1	6524	128	2068.3540817136
1	8388	129	2061.4840418231
1	8389	130	2053.1910408279
1	8755	131	2043.4877064908
1	8756	132	2033.3139568036
1	8964	133	2023.1451795846
1	8966	134	2012.9686506316
1	8967	135	2002.8041641349
1	8968	136	1992.6308429986
1	8969	137	1982.4504953222
1	8970	138	1972.5513487197
1	8971	139	1962.838645326
1	8972	140	1953.1282499032
1	8973	141	1943.4028389016
1	8974	142	1933.6834441219
1	8975	143	1923.9688964002
1	8976	144	1914.2585184174
1	8977	145	1904.5395812923
1	8978	146	1894.8205174943
1	8979	147	1885.1180191981
1	8980	148	1875.3959878068
1	8981	149	1865.5561692314
1	8982	150	1855.5612421744
1	8983	151	1845.5863261465
1	8984	152	1835.6185770426
1	8985	153	1825.648385101
1	8987	154	1815.6715609068
1	8988	155	1805.6921932697
1	8989	156	1795.7268777285
1	8990	157	1785.7466977667
1	8991	158	1775.7859265022
1	8992	159	1765.8700623354
1	8993	160	1756.2843862753
1	8994	161	1746.6824184489
1	8995	162	1737.0224487344
1	8996	163	1727.2659163726
1	8998	164	1717.5051947208
1	8999	165	1707.7549493769
1	9000	166	1697.992753691
1	9001	167	1688.2466626558
1	9002	168	1678.4959424902
1	9003	169	1668.7432550695
1	9004	170	1658.9810383851
1	9005	171	1649.2343620844
1	9006	172	1639.4878895022
1	9007	173	1629.7192855999
1	9008	174	1619.9642340345
1	9009	175	1610.2023848351
1	9010	176	1600.4578386089
1	9011	177	1590.6995760221
1	9012	178	1580.9399767527
1	9013	179	1571.1978596048
1	9014	180	1561.4476604518
1	9015	181	1551.75232914
1	9016	182	1541.8384632645
1	9017	183	1531.9235668378
1	9019	184	1522.0119445026
1	9020	185	1512.0939747551
1	9021	186	1502.1706170533
1	9022	187	1492.5530819753
1	9023	188	1483.4314601179
1	9024	189	1474.3149310304
1	9025	190	1465.1764887199
1	9026	191	1456.056024095
1	9027	192	1447.0116582625
1	9028	193	1438.9818244288
1	9030	194	1430.9405804463
1	9031	195	1422.9026956828
1	9032	196	1414.8587743286
1	9033	197	1407.1491110204
1	9034	198	1401.1994544519
1	9035	199	1395.2442185842
1	9036	200	1389.2919669906
0	2	1	2414.9014220152
0	3	2	2412.0282535021
0	4	3	2407.434272861
0	5	4	2402.6086066293
0	6	5	2396.4772731521
0	7	6	2388.9936340754
0	8	7	2380.1477414317
0	9	8	2370.4544348472
0	10	9	2360.735065655
0	11	10	2351.0178592684
0	12	11	2341.5298487653
0	13	12	2334.7235384902
0	14	13	2336.8243788907
0	15	14	2347.473535693
0	16	15	2357.7419379568
0	17	16	2370.3022435491
0	18	17	2383.9995112187
0	19	18	2397.5196581341
0	20	19	2408.4006939746
0	21	20	2416.1646603449
0	22	21	2421.2380997778
0	23	22	2425.4024470274
0	24	23	2430.5642199855
0	25	24	2431.857510546
0	26	25	2433.3910067528
0	27	26	2435.2086441015
0	28	27	2437.2654259532
0	29	28	2438.6622200004
0	30	29	2439.5314866065
0	31	30	2440.5417792661
0	32	31	2441.5518293041
0	33	32	2442.5624475764
0	34	33	2443.5735475319
0	35	34	2444.5849311245
0	36	35	2445.5950808151
0	37	36	2446.6046263459
0	38	37	2447.6140945138
0	39	38	2448.6233097685
0	40	39	2449.6332776411
0	41	40	2450.6439768443
0	42	41	2449.5656488632
0	43	42	2448.4523300367
0	44	43	2447.3397444888
0	45	44	2446.2263210806
0	46	45	2445.1152206709
0	47	46	2444.0012420758
0	48	47	2442.8904823567
0	49	48	2441.777872229
0	50	49	2440.6656682086
0	51	50	2439.6989606298
0	52	51	2438.7586376385
0	53	52	2437.8656483651
0	54	53	2432.7589399592
0	55	54	2422.3179143567
0	56	55	2409.1878704632
0	57	56	2395.2685581594
0	58	57	2381.3499362882
0	59	58	2367.4345339072
0	60	59	2353.4990511541
0	61	60	2339.5799515581
0	62	61	2325.6551645531
0	63	62	2311.7279255744
0	64	63	2297.8279693802
0	65	64	2283.9024435012
0	66	65	2269.9700077686
0	67	66	2256.0654755381
0	68	67	2242.2022168655
0	69	68	2228.4219174191
0	70	69	2214.6856643925
0	71	70	2201.4943822231
0	72	71	2188.3033135722
0	73	72	2175.3852950842
0	74	73	2163.8113479719
0	76	74	2155.3575589936
0	77	75	2150.7817126756
0	78	76	2149.8859961357
0	79	77	2149.8859961357
0	80	78	2149.8859961357
0	81	79	2149.8859961357
0	82	80	2149.8859961357
0	83	81	2149.8859961357
0	84	82	2149.8859961357
0	85	83	2149.8859961357
0	86	84	2149.8859961357
0	87	85	2149.8859961357
0	206	86	2149.8859961357
0	207	87	2149.8859961357
0	2035	88	2149.8859961357
0	2036	89	2149.8859961357
0	5345	90	2149.8859961357
0	5346	91	2149.8859961357
0	6154	92	2149.8859961357
0	6155	93	2149.8859961357
0	6301	94	2149.8859961357
0	6302	95	2149.8859961357
0	6303	96	2149.8859961357
0	6304	97	2149.8859961357
0	6305	98	2149.8859961357
0	6306	99	2149.8859961357
0	6307	100	2149.8859961357
0	6308	101	2149.8859961357
0	6309	102	2149.8859961357
0	6310	103	2149.8859961357
0	6312	104	2149.8859961357
0	6313	105	2149.8859961357
0	6314	106	2149.8859961357
0	6315	107	2149.8859961357
0	6316	108	2149.8859961357
0	6317	109	2149.8859961357
0	6318	110	2149.8859961357
0	6319	111	2149.8859961357
0	6320	112	2149.8859961357
0	6321	113	2149.8859961357
0	6322	114	2149.8859961357
0	6323	115	2149.8859961357
0	6324	116	2149.8859961357
0	6325	117	2149.8859961357
0	6326	118	2149.8859961357
0	6327	119	2149.8859961357
0	6328	120	2149.8859961357
0	6329	121	2149.8859961357
0	6330	122	2149.8859961357
0	6331	123	2149.8859961357
0	6333	124	2148.7464742727
0	6334	125	2145.8460857403
0	6335	126	2142.4851029093
0	6523	127	2137.791214744
0	6524	128	2132.5140162446
0	8388	129	2126.0783884241
0	8389	130	2118.309777358
0	8755	131	2109.2200123194
0	8756	132	2099.6895776254
0	8964	133	2090.1638009758
0	8966	134	2080.6307627566
0	8967	135	2071.109005515
0	8968	136	2061.5789722728
0	8969	137	2052.0423567987
0	8970	138	2042.2489347234
0	8971	139	2032.2574583689
0	8972	140	2022.2683562282
0	8973	141	2012.2638075332
0	8974	142	2002.265447736
0	8975	143	1992.2720741183
0	8976	144	1982.282989918
0	8977	145	1972.2851009122
0	8978	146	1962.2870815968
0	8979	147	1952.3061032455
0	8980	148	1942.3050311619
0	8981	149	1932.4651849427
0	8982	150	1922.7115646708
0	8983	151	1912.9774723037
0	8984	152	1903.2503738302
0	8985	153	1893.5208914959
0	8987	154	1883.7849370313
0	8988	155	1874.0465005302
0	8989	156	1864.3217768651
0	8990	157	1854.582547651
0	8991	158	1844.8622585516
0	8992	159	1835.0717527498
0	8993	160	1824.9788591685
0	8994	161	1814.8688117563
0	8995	162	1804.8358194067
0	8996	163	1794.8803013753
0	8998	164	1784.9205086128
0	8999	165	1774.971405823
0	9000	166	1765.0101089635
0	9001	167	1755.0652452101
0	9002	168	1745.1156579148
0	9003	169	1735.1640632426
0	9004	170	1725.2027449555
0	9005	171	1715.2572840012
0	9006	172	1705.3120309189
0	9007	173	1695.3441951467
0	9008	174	1685.3901881119
0	9009	175	1675.4292448055
0	9010	176	1665.4859573679
0	9011	177	1655.5286738231
0	9012	178	1645.5700263339
0	9013	179	1635.629217516
0	9014	180	1625.6801618602
0	9015	181	1615.8286965052
0	9016	182	1606.0076764076
0	9017	183	1596.18563541
0	9019	184	1586.3668378419
0	9020	185	1576.541752306
0	9021	186	1566.7113292761
0	9022	187	1556.6401183951
0	9023	188	1546.0949563804
0	9024	189	1535.5556819246
0	9025	190	1524.9910744202
0	9026	191	1514.447250238
0	9027	192	1503.8393321893
0	9028	193	1492.4449857073
0	9030	194	1481.0344482072
0	9031	195	1469.628677445
0	9032	196	1458.2143407499
0	9033	197	1446.6060996222
0	9034	198	1433.9864491369
0	9035	199	1421.3549645556
0	9036	200	1408.7298098363
9	7	6	4.2301091069722
9	8	7	5.4083752898229
9	9	8	6.4569285084612
9	10	9	6.9981297601067
9	11	10	8.3312879690391
9	12	11	2.4141445356829
9	13	12	2.1874061765078
9	14	13	1.8382242624125
9	15	14	2.0343893016141
9	16	15	1.9593955015171
9	17	16	2.2876002045415
9	18	17	1.6630794257514
9	19	18	2.3307419132725
9	20	19	2.0570318190542
9	21	20	0.973
9	22	21	0.973
9	23	22	0.973
9	24	23	0.973
9	25	24	0.973
9	26	25	0.973
9	27	26	5.0298054635758
9	28	27	5.3387626171002
9	29	28	6.0992411196982
9	30	29	7.6689071873388
9	31	30	7.6953946644296
9	32	31	2.2138015462716
9	33	32	1.8297571526508
9	34	33	1.9617299658648
9	35	34	2.2952115578408
9	36	35	2.0616520584725
9	37	36	1.754348913972
9	38	37	2.0877151155648
9	39	38	1.9439382944776
9	40	39	2.2854708098026
9	41	40	1.8636906702153
9	42	41	2.3542075109855
9	43	42	2.0212017762597
9	44	43	1.9852732682006
9	45	44	2.0501312890771
9	46	45	1.7295064557081
9	47	46	2.1721049310558
9	48	47	2.0260253266059
9	49	48	2.1004165056056
9	50	49	2.1222972100305
9	51	50	1.7195426961875
9	52	51	2.1943406010272
9	53	52	2.2204838817958
9	54	53	1.7147641271474
9	55	54	2.1203351901188
9	56	55	2.19090230073
9	57	56	2.0926411604769
9	58	57	1.8907404194004
9	59	58	1.897294422508
9	60	59	2.1444220061647
9	61	60	2.2027721979195
9	62	61	2.0010986474578
9	63	62	1.9645049360925
9	64	63	2.186888723854
9	65	64	1.9083002968928
9	66	65	2.1406602496428
9	67	66	1.799153459795
9	68	67	2.2212608375083
9	69	68	1.9495279777307
9	70	69	1.8852368861481
9	71	70	1.9890193069286
9	72	71	1.987796202425
9	73	72	2.1930331348408
9	74	73	2.2051001228538
9	76	74	1.9661718581163
9	77	75	0.973
9	78	76	0.973
9	79	77	0.973
9	80	78	0.973
9	81	79	0.973
9	82	80	0.973
9	83	81	0.973
9	84	82	0.973
9	85	83	0.973
9	86	84	0.973
9	87	85	0.973
9	206	86	0.973
9	207	87	0.973
9	2035	88	0.973
9	2036	89	0.973
9	5345	90	0.973
9	5346	91	0.973
9	6154	92	0.973
9	6155	93	0.973
9	6301	94	0.973
9	6302	95	0.973
9	6303	96	0.973
9	6304	97	0.973
9	6305	98	0.973
9	6306	99	0.973
9	6307	100	0.973
9	6308	101	0.973
9	6309	102	0.973
9	6310	103	0.973
9	6312	104	0.973
9	6313	105	0.973
9	6314	106	0.973
9	6315	107	0.973
9	6316	108	0.973
9	6317	109	0.973
9	6318	110	0.973
9	6319	111	0.973
9	6320	112	0.973
9	6321	113	0.973
9	6322	114	0.973
9	6323	115	0.973
9	6324	116	0.973
9	6325	117	0.973
9	6326	118	0.973
9	6327	119	0.973
9	6328	120	0.973
9	6329	121	0.973
9	6330	122	0.973
9	6331	123	0.973
9	6333	124	1.4055180064092
9	6334	125	2.4086533065113
9	6335	126	1.7683133601167
9	6523	127	2.5921033159178
9	6524	128	1.579951688126
9	8388	129	5.2536730511755
9	8389	130	5.5868251721197
9	8755	131	7.2225100387629
9	8756	132	8.1930261317193
9	8964	133	5.2714115644294
9	8966	134	2.3346173145876
9	8967	135	1.6993496526726
9	8968	136	2.0208465247618
9	8969	137	2.3748548109116
9	8970	138	1.6497843170806
9	8971	139	2.3793424968489
9	8972	140	1.9216199881329
9	8973	141	2.1975633147567
9	8974	142	1.9540544842636
9	8975	143	1.7136191384954
9	8976	144	2.4610255319078
9	8977	145	1.8083089345069
9	8978	146	2.153655299416
9	8979	147	2.082736503218
9	8980	148	1.6779174465943
9	8981	149	2.3357229587957
9	8982	150	2.0390627368016
9	8983	151	1.7085150458506
9	8984	152	2.2817910303295
9	8985	153	2.2131798131429
9	8987	154	1.7028818123344
9	8988	155	2.2277740074734
9	8989	156	1.8033553176747
9	8990	157	2.1389979132213
9	8991	158	2.2210617300063
9	8992	159	1.8245441998536
9	8993	160	2.013151286789
9	8994	161	2.3296096352085
9	8995	162	1.6618643600514
9	8996	163	2.1619013108312
9	8998	164	1.9449602130795
9	8999	165	1.9490582846931
9	9000	166	2.3932886565501
9	9001	167	1.8857045184369
9	9002	168	2.1696741393275
9	9003	169	2.018013845
9	9004	170	1.8381171012985
9	9005	171	2.0299637940969
9	9006	172	2.2891918591283
9	9007	173	1.9318970989814
9	9008	174	1.7954313125162
9	9009	175	2.3281517700624
9	9010	176	1.679115581854
9	9011	177	2.4166532776896
9	9012	178	1.8173208541888
9	9013	179	2.0348909772901
9	9014	180	2.0580566080594
9	9015	181	1.9773992825341
9	9016	182	2.0586194280271
9	9017	183	2.0891470190924
9	9019	184	2.0079933321336
9	9020	185	2.1644917614211
9	9021	186	1.9577084879739
9	9022	187	1.9563376376084
9	9023	188	1.8677559749289
9	9024	189	2.3407721771015
9	9025	190	2.0315389265986
9	9026	191	1.76795872301
9	9027	192	2.3536050547065
9	9028	193	1.9094116528536
9	9030	194	1.9142292227408
9	9031	195	1.8826868758283
9	9032	196	2.2840532334992
9	9033	197	2.0036091639584
9	9034	198	2.2127653892913
9	9035	199	1.962528885755
9	9036	200	1.7477931859519
8	7	6	1.9474421001598
8	8	7	2.0059184591635
8	9	8	1.9846240851143
8	10	9	1.8173657322512
8	11	10	1.9131545290095
8	12	11	0.11784023580519
8	13	12	0.048173203465995
8	14	13	-0.054790777366142
8	15	14	0.0039751141518352
8	16	15	-0.018007996121888
8	17	16	0.077808754814324
8	18	17	-0.10640377648408
8	19	18	0.091259598622564
8	20	19	0.0090987256960933
8	21	20	-0.89915141704996
8	22	21	-2.5765247842278
8	23	22	-1.5617496826214
8	24	23	-1.6316359462101
8	25	24	-2.6026178634216
8	26	25	-0.23096030431261
8	27	26	2.240684374969
8	28	27	1.8455726963351
8	29	28	1.78050019952
8	30	29	1.970705549533
8	31	30	1.6907719809701
8	32	31	0.053259000824763
8	33	32	-0.0593537736102
8	34	33	-0.019394498721232
8	35	34	0.077503505891656
8	36	35	0.0078275678446502
8	37	36	-0.08148419994628
8	38	37	0.017589079025202
8	39	38	-0.024622079397087
8	40	39	0.074817628990859
8	41	40	-0.049302461256739
8	42	41	0.093614317842293
8	43	42	-0.0049621417489831
8	44	43	-0.015173091564794
8	45	44	0.003961388256867
8	46	45	-0.089072878758888
8	47	46	0.041741832238621
8	48	47	-0.0017116748774431
8	49	48	0.019815375730396
8	50	49	0.025501057012008
8	51	50	-0.091893632488791
8	52	51	0.048361579561606
8	53	52	0.05428304580273
8	54	53	-0.093537181308493
8	55	54	0.026726024830714
8	56	55	0.046201348118485
8	57	56	0.016487142750993
8	58	57	-0.042271767123601
8	59	58	-0.039240699366202
8	60	59	0.03342690848047
8	61	60	0.049132931581697
8	62	61	-0.010400795512831
8	63	62	-0.020670054752847
8	64	63	0.043986489532982
8	65	64	-0.037562610358
8	66	65	0.030511548989454
8	67	66	-0.069028196809814
8	68	67	0.054902462563478
8	69	68	-0.025059687276372
8	70	69	-0.043009790068027
8	71	70	-0.011700205802917
8	72	71	-0.011719390831422
8	73	72	0.047990855693351
8	74	73	0.049887266790028
8	76	74	-0.020428126633632
8	77	75	-1.1208543667452
8	78	76	-3.3217062188293
8	79	77	-2.8990814723647
8	80	78	-2.5620670455075
8	81	79	-1.8385445180953
8	82	80	-1.2375505090079
8	83	81	-0.5397631807636
8	84	82	-0.43917092785407
8	85	83	-0.0027816467406933
8	86	84	0
8	87	85	0
8	206	86	0
8	207	87	0
8	2035	88	0
8	2036	89	0
8	5345	90	0
8	5346	91	0
8	6154	92	0
8	6155	93	0
8	6301	94	0
8	6302	95	0
8	6303	96	0
8	6304	97	0
8	6305	98	0
8	6306	99	0
8	6307	100	0
8	6308	101	0
8	6309	102	0
8	6310	103	0
8	6312	104	0
8	6313	105	0
8	6314	106	0
8	6315	107	0
8	6316	108	0
8	6317	109	0
8	6318	110	0
8	6319	111	0
8	6320	112	0
8	6321	113	0
8	6322	114	0
8	6323	115	0
8	6324	116	0
8	6325	117	0
8	6326	118	0
8	6327	119	0
8	6328	120	0
8	6329	121	0
8	6330	122	0
8	6331	123	0
8	6333	124	1.0115984375509
8	6334	125	1.7489309330713
8	6335	126	0.60671278573259
8	6523	127	1.1526210222475
8	6524	128	0.20407297127544
8	8388	129	2.2475045374781
8	8389	130	1.8707146071945
8	8755	131	2.076951830287
8	8756	132	2.0091022460302
8	8964	133	0.96836588744136
8	8966	134	0.088219181266615
8	8967	135	-0.097988042361104
8	8968	136	-0.0018682719813654
8	8969	137	0.10014698617393
8	8970	138	-0.11248190266546
8	8971	139	0.10187790894648
8	8972	140	-0.03310500856489
8	8973	141	0.04741919633234
8	8974	142	-0.024119884998072
8	8975	143	-0.093358118126636
8	8976	144	0.12526141209994
8	8977	145	-0.066539557350334
8	8978	146	0.035170682584866
8	8979	147	0.013670053051319
8	8980	148	-0.10411653909832
8	8981	149	0.089308921298944
8	8982	150	0.0011230985587467
8	8983	151	-0.094861766146497
8	8984	152	0.073987705516629
8	8985	153	0.051801468499471
8	8987	154	-0.097215745737776
8	8988	155	0.057496817435602
8	8989	156	-0.066978109288028
8	8990	157	0.032237475577276
8	8991	158	0.054811907354743
8	8992	159	-0.06131706496468
8	8993	160	-0.0049281180230896
8	8994	161	0.08630394617794
8	8995	162	-0.10920051499037
8	8996	163	0.038911811814177
8	8998	164	-0.025012190483976
8	8999	165	-0.023125382238067
8	9000	166	0.10566607895074
8	9001	167	-0.043757488415578
8	9002	168	0.039456234651153
8	9003	169	-0.0053975355857983
8	9004	170	-0.057311906267424
8	9005	171	-0.00010822163196345
8	9006	172	0.074513422588353
8	9007	173	-0.030588116666769
8	9008	174	-0.069390147502999
8	9009	175	0.086558528281747
8	9010	176	-0.1037409145711
8	9011	177	0.11249414579244
8	9012	178	-0.063669155742973
8	9013	179	0.0011379051720724
8	9014	180	0.0077998632867811
8	9015	181	-0.01576190188527
8	9016	182	0.008201620646286
8	9017	183	0.016768686152064
8	9019	184	-0.0071716150548315
8	9020	185	0.038166339707095
8	9021	186	-0.022594285153318
8	9022	187	-0.022358971254434
8	9023	188	-0.047472565355712
8	9024	189	0.090585710084998
8	9025	190	-0.001224934463389
8	9026	191	-0.077599320798182
8	9027	192	0.093839812988881
8	9028	193	-0.036928499036001
8	9030	194	-0.034532751443331
8	9031	195	-0.042773271685
8	9032	196	0.074617592669092
8	9033	197	-0.0085710955061948
8	9034	198	0.051925357959698
8	9035	199	-0.021674993974155
8	9036	200	-0.083439164760058
7	6	5	4.0425376740037
7	7	6	5.9899797741635
7	8	7	7.995898233327
7	9	8	9.9805223184414
7	10	9	11.797888050693
7	11	10	13.711042579702
7	12	11	13.828882815507
7	13	12	13.877056018973
7	14	13	13.822265241607
7	15	14	13.826240355759
7	16	15	13.808232359637
7	17	16	13.886041114451
7	18	17	13.779637337967
7	19	18	13.87089693659
7	20	19	13.879995662286
7	21	20	12.980844245236
7	22	21	10.404319461008
7	23	22	8.8425697783867
7	24	23	7.2109338321766
7	25	24	4.608315968755
7	26	25	4.3773556644424
7	27	26	6.6180400394114
7	28	27	8.4636127357465
7	29	28	10.244112935267
7	30	29	12.2148184848
7	31	30	13.90559046577
7	32	31	13.958849466594
7	33	32	13.899495692984
7	34	33	13.880101194263
7	35	34	13.957604700155
7	36	35	13.965432267999
7	37	36	13.883948068053
7	38	37	13.901537147078
7	39	38	13.876915067681
7	40	39	13.951732696672
7	41	40	13.902430235415
7	42	41	13.996044553258
7	43	42	13.991082411509
7	44	43	13.975909319944
7	45	44	13.979870708201
7	46	45	13.890797829442
7	47	46	13.93253966168
7	48	47	13.930827986803
7	49	48	13.950643362533
7	50	49	13.976144419545
7	51	50	13.884250787057
7	52	51	13.932612366618
7	53	52	13.986895412421
7	54	53	13.893358231112
7	55	54	13.920084255943
7	56	55	13.966285604062
7	57	56	13.982772746813
7	58	57	13.940500979689
7	59	58	13.901260280323
7	60	59	13.934687188803
7	61	60	13.983820120385
7	62	61	13.973419324872
7	63	62	13.952749270119
7	64	63	13.996735759652
7	65	64	13.959173149294
7	66	65	13.989684698284
7	67	66	13.920656501474
7	68	67	13.975558964037
7	69	68	13.950499276761
7	70	69	13.907489486693
7	71	70	13.89578928089
7	72	71	13.884069890059
7	73	72	13.932060745752
7	74	73	13.981948012542
7	76	74	13.961519885908
7	77	75	12.840665519163
7	78	76	9.5189593003338
7	79	77	6.6198778279691
7	80	78	4.0578107824616
7	81	79	2.2192662643663
7	82	80	0.98171575535837
7	83	81	0.44195257459476
7	84	82	0.0027816467406933
7	85	83	0
7	86	84	0
7	87	85	0
7	206	86	0
7	207	87	0
7	2035	88	0
7	2036	89	0
7	5345	90	0
7	5346	91	0
7	6154	92	0
7	6155	93	0
7	6301	94	0
7	6302	95	0
7	6303	96	0
7	6304	97	0
7	6305	98	0
7	6306	99	0
7	6307	100	0
7	6308	101	0
7	6309	102	0
7	6310	103	0
7	6312	104	0
7	6313	105	0
7	6314	106	0
7	6315	107	0
7	6316	108	0
7	6317	109	0
7	6318	110	0
7	6319	111	0
7	6320	112	0
7	6321	113	0
7	6322	114	0
7	6323	115	0
7	6324	116	0
7	6325	117	0
7	6326	118	0
7	6327	119	0
7	6328	120	0
7	6329	121	0
7	6330	122	0
7	6331	123	0
7	6333	124	1.0115984375509
7	6334	125	2.7605293706223
7	6335	126	3.3672421563549
7	6523	127	4.5198631786024
7	6524	128	4.7239361498778
7	8388	129	6.9714406873559
7	8389	130	8.8421552945504
7	8755	131	10.919107124837
7	8756	132	12.928209370868
7	8964	133	13.896575258309
7	8966	134	13.984794439576
7	8967	135	13.886806397215
7	8968	136	13.884938125233
7	8969	137	13.985085111407
7	8970	138	13.872603208742
7	8971	139	13.974481117688
7	8972	140	13.941376109123
7	8973	141	13.988795305456
7	8974	142	13.964675420457
7	8975	143	13.871317302331
7	8976	144	13.996578714431
7	8977	145	13.93003915708
7	8978	146	13.965209839665
7	8979	147	13.978879892717
7	8980	148	13.874763353618
7	8981	149	13.964072274917
7	8982	150	13.965195373476
7	8983	151	13.87033360733
7	8984	152	13.944321312846
7	8985	153	13.996122781346
7	8987	154	13.898907035608
7	8988	155	13.956403853043
7	8989	156	13.889425743755
7	8990	157	13.921663219333
7	8991	158	13.976475126687
7	8992	159	13.915158061723
7	8993	160	13.9102299437
7	8994	161	13.996533889878
7	8995	162	13.887333374887
7	8996	163	13.926245186701
7	8998	164	13.901232996217
7	8999	165	13.878107613979
7	9000	166	13.98377369293
7	9001	167	13.940016204515
7	9002	168	13.979472439166
7	9003	169	13.97407490358
7	9004	170	13.916762997312
7	9005	171	13.916654775681
7	9006	172	13.991168198269
7	9007	173	13.960580081602
7	9008	174	13.891189934099
7	9009	175	13.977748462381
7	9010	176	13.87400754781
7	9011	177	13.986501693602
7	9012	178	13.922832537859
7	9013	179	13.923970443031
7	9014	180	13.931770306318
7	9015	181	13.916008404433
7	9016	182	13.924210025079
7	9017	183	13.940978711231
7	9019	184	13.933807096176
7	9020	185	13.971973435883
7	9021	186	13.94937915073
7	9022	187	13.927020179476
7	9023	188	13.87954761412
7	9024	189	13.970133324205
7	9025	190	13.968908389742
7	9026	191	13.891309068943
7	9027	192	13.985148881932
7	9028	193	13.948220382896
7	9030	194	13.913687631453
7	9031	195	13.870914359768
7	9032	196	13.945531952437
7	9033	197	13.936960856931
7	9034	198	13.988886214891
7	9035	199	13.967211220916
7	9036	200	13.883772056156
6	5	4	1578.4472822268
6	6	5	1579.5086799795
6	7	6	1581.463551742
6	8	7	1586.5215602648
6	9	8	1592.9907937236
6	10	9	1600.8370654397
6	11	10	1609.9987445669
6	12	11	1619.8356540762
6	13	12	1629.6860002102
6	14	13	1639.5136572961
6	15	14	1649.6652132459
6	16	15	1661.608180549
6	17	16	1673.8534141136
6	18	17	1682.7311922461
6	19	18	1692.0008722087
6	20	19	1695.5930600381
6	21	20	1697.3638825528
6	22	21	1698.4781867648
6	23	22	1699.3508925885
6	24	23	1700.1320105875
6	25	24	1700.6757637747
6	26	25	1700.9763333295
6	27	26	1702.0570003456
6	28	27	1709.2184885982
6	29	28	1718.486905667
6	30	29	1729.7221734524
6	31	30	1742.8166470975
6	32	31	1756.6257166937
6	33	32	1770.5424128035
6	34	33	1784.4431180377
6	35	34	1798.3453813354
6	36	35	1812.2489111917
6	37	36	1826.1338232355
6	38	37	1840.0052115899
6	39	38	1853.8865276687
6	40	39	1867.7613132671
6	41	40	1881.6495191753
6	42	41	1895.5577214556
6	43	42	1909.4568237681
6	44	43	1923.3535482474
6	45	44	1937.2407883173
6	46	45	1951.1177424677
6	47	46	1965.0138413142
6	48	47	1978.8952731136
6	49	48	1992.7971214326
6	50	49	2006.673840113
6	51	50	2020.5721973078
6	52	51	2034.4503232781
6	53	52	2048.3538283575
6	54	53	2062.237618464
6	55	54	2076.1422634898
6	56	55	2090.0447951443
6	57	56	2103.4108257322
6	58	57	2113.9630808383
6	59	58	2119.9180992302
6	60	59	2120.6601283913
6	61	60	2120.1890040431
6	62	61	2119.718827513
6	63	62	2119.2483964385
6	64	63	2118.7775251754
6	65	64	2118.3070764719
6	66	65	2117.8366521066
6	67	66	2117.3661412979
6	68	67	2116.8956251917
6	69	68	2116.4246807871
6	70	69	2115.9545613071
6	71	70	2115.4322686028
6	72	71	2113.4771187576
6	73	72	2111.517916047
6	74	73	2107.6334060756
6	76	74	2103.1587952022
6	77	75	2098.7578800702
6	78	76	2093.4738733796
6	79	77	2089.4728623815
6	80	78	2086.8610641453
6	81	79	2085.348645689
6	82	80	2084.598813911
6	83	81	2084.2755029062
6	84	82	2084.0913831079
6	85	83	2084.0913773561
6	86	84	2084.0913773561
6	87	85	2084.0913773561
6	206	86	2084.0913773561
6	207	87	2084.0913773561
6	2035	88	2084.0913773561
6	2036	89	2084.0913773561
6	5345	90	2084.0913773561
6	5346	91	2084.0913773561
6	6154	92	2084.0913773561
6	6155	93	2084.0913773561
6	6301	94	2084.0913773561
6	6302	95	2084.0913773561
6	6303	96	2084.0913773561
6	6304	97	2084.0913773561
6	6305	98	2084.0913773561
6	6306	99	2084.0913773561
6	6307	100	2084.0913773561
6	6308	101	2084.0913773561
6	6309	102	2084.0913773561
6	6310	103	2084.0913773561
6	6312	104	2084.0913773561
6	6313	105	2084.0913773561
6	6314	106	2084.0913773561
6	6315	107	2084.0913773561
6	6316	108	2084.0913773561
6	6317	109	2084.0913773561
6	6318	110	2084.0913773561
6	6319	111	2084.0913773561
6	6320	112	2084.0913773561
6	6321	113	2084.0913773561
6	6322	114	2084.0913773561
6	6323	115	2084.0913773561
6	6324	116	2084.0913773561
6	6325	117	2084.0913773561
6	6326	118	2084.0913773561
6	6327	119	2084.0913773561
6	6328	120	2084.0913773561
6	6329	121	2084.0913773561
6	6330	122	2084.0913773561
6	6331	123	2084.0913773561
6	6333	124	2083.8415159117
6	6334	125	2082.8379719844
6	6335	126	2081.2856633887
6	6523	127	2079.1107082088
6	6524	128	2077.058706427
6	8388	129	2073.5191254634
6	8389	130	2067.6856360147
6	8755	131	2060.4215953555
6	8756	132	2051.6059240969
6	8964	133	2041.6141160876
6	8966	134	2031.4485583976
6	8967	135	2021.2742513455
6	8968	136	2011.0943402322
6	8969	137	2000.9190508332
6	8970	138	1990.7496809661
6	8971	139	1980.5673726154
6	8972	140	1970.7511571357
6	8973	141	1961.0414251825
6	8974	142	1951.3305540066
6	8975	143	1941.6230855966
6	8976	144	1931.8992240224
6	8977	145	1922.1897319276
6	8978	146	1912.4751856066
6	8979	147	1902.761581324
6	8980	148	1893.0482705384
6	8981	149	1883.3238377739
6	8982	150	1873.6010529008
6	8983	151	1863.6956790099
6	8984	152	1853.7288542697
6	8985	153	1843.7479296904
6	8987	154	1833.7748708241
6	8988	155	1823.7839330686
6	8989	156	1813.8238297673
6	8990	157	1803.8430276411
6	8991	158	1793.8805652075
6	8992	159	1783.9081733022
6	8993	160	1773.953549563
6	8994	161	1764.1024897275
6	8995	162	1754.5029958077
6	8996	163	1744.9034961695
6	8998	164	1735.2135436097
6	8999	165	1725.4646495562
6	9000	166	1715.7142761843
6	9001	167	1705.9595537297
6	9002	168	1696.1979224579
6	9003	169	1686.4408054007
6	9004	170	1676.6787394332
6	9005	171	1666.9294322124
6	9006	172	1657.1726133497
6	9007	173	1647.3985287705
6	9008	174	1637.6402851036
6	9009	175	1627.8838084964
6	9010	176	1618.1329750475
6	9011	177	1608.3752100645
6	9012	178	1598.6210850598
6	9013	179	1588.8634282527
6	9014	180	1579.115065719
6	9015	181	1569.3633384015
6	9016	182	1559.6083960738
6	9017	183	1549.8799164966
6	9019	184	1539.979403954
6	9020	185	1530.077864279
6	9021	186	1520.1630799519
6	9022	187	1510.2577427048
6	9023	188	1500.3506412376
6	9024	189	1490.858649049
6	9025	190	1481.7294721724
6	9026	191	1472.6054632282
6	9027	192	1463.4658634765
6	9028	193	1454.3336823434
6	9030	194	1445.4882846102
6	9031	195	1437.4508950654
6	9032	196	1429.405696
6	9033	197	1421.3596109133
6	9034	198	1413.3085410427
6	9035	199	1406.0092774583
6	9036	200	1400.0590919172
5	5	4	2414.8859801291
5	6	5	2411.9954222892
5	7	6	2407.2506839979
5	8	7	2402.2569066116
5	9	8	2395.8698252906
5	10	9	2388.1231925822
5	11	10	2379.0778566878
5	12	11	2369.3658650925
5	13	12	2359.6406075037
5	14	13	2349.9377508366
5	15	14	2340.5696662485
5	16	15	2334.4685549028
5	17	16	2338.029717051
5	18	17	2348.6255299923
5	19	18	2358.9043307323
5	20	19	2371.8350753159
5	21	20	2385.3663703802
5	22	21	2396.8549781273
5	23	22	2406.0844248855
5	24	23	2414.3452692438
5	25	24	2420.0958222281
5	26	25	2423.9862948015
5	27	26	2429.4993003103
5	28	27	2431.427825698
5	29	28	2432.8362908805
5	30	29	2434.5436464486
5	31	30	2436.5335342661
5	32	31	2438.3299803259
5	33	32	2439.1886723154
5	34	33	2440.1890011905
5	35	34	2441.1999299027
5	36	35	2442.2109507151
5	37	36	2443.2206176987
5	38	37	2444.2293012826
5	39	38	2445.238706779
5	40	39	2446.2476373996
5	41	40	2447.2575439028
5	42	41	2448.2689044791
5	43	42	2449.2796033344
5	44	43	2450.2901292811
5	45	44	2449.9548820338
5	46	45	2448.8430623495
5	47	46	2447.7297087947
5	48	47	2446.6175303617
5	49	48	2445.50371616
5	50	49	2444.3919153415
5	51	50	2443.2783808481
5	52	51	2442.1664672778
5	53	52	2441.0525203367
5	54	53	2440.0270559463
5	55	54	2439.0859457215
5	56	55	2438.5427623577
5	57	56	2435.2747637217
5	58	57	2426.4685505354
5	59	58	2413.9258769645
5	60	59	2400.1156476981
5	61	60	2386.1670940989
5	62	61	2372.2466024841
5	63	62	2358.318574614
5	64	63	2344.3775140973
5	65	64	2330.4489642661
5	66	65	2316.5211350349
5	67	66	2302.5907464555
5	68	67	2288.6602010678
5	69	68	2274.7169750297
5	70	69	2260.7981725226
5	71	70	2246.862371614
5	72	71	2233.0750424088
5	73	72	2219.2591332041
5	74	73	2205.926626337
5	76	74	2192.7331559004
5	77	75	2179.7569786774
5	78	76	2170.1337634519
5	79	77	2163.3372315818
5	80	78	2158.9005604605
5	81	79	2156.3314097527
5	82	80	2155.0576677968
5	83	81	2154.5084582217
5	84	82	2154.1956932537
5	85	83	2154.1956834835
5	86	84	2154.1956834835
5	87	85	2154.1956834835
5	206	86	2154.1956834835
5	207	87	2154.1956834835
5	2035	88	2154.1956834835
5	2036	89	2154.1956834835
5	5345	90	2154.1956834835
5	5346	91	2154.1956834835
5	6154	92	2154.1956834835
5	6155	93	2154.1956834835
5	6301	94	2154.1956834835
5	6302	95	2154.1956834835
5	6303	96	2154.1956834835
5	6304	97	2154.1956834835
5	6305	98	2154.1956834835
5	6306	99	2154.1956834835
5	6307	100	2154.1956834835
5	6308	101	2154.1956834835
5	6309	102	2154.1956834835
5	6310	103	2154.1956834835
5	6312	104	2154.1956834835
5	6313	105	2154.1956834835
5	6314	106	2154.1956834835
5	6315	107	2154.1956834835
5	6316	108	2154.1956834835
5	6317	109	2154.1956834835
5	6318	110	2154.1956834835
5	6319	111	2154.1956834835
5	6320	112	2154.1956834835
5	6321	113	2154.1956834835
5	6322	114	2154.1956834835
5	6323	115	2154.1956834835
5	6324	116	2154.1956834835
5	6325	117	2154.1956834835
5	6326	118	2154.1956834835
5	6327	119	2154.1956834835
5	6328	120	2154.1956834835
5	6329	121	2154.1956834835
5	6330	122	2154.1956834835
5	6331	123	2154.1956834835
5	6333	124	2153.7712429438
5	6334	125	2152.066519241
5	6335	126	2149.4296070077
5	6523	127	2145.735002769
5	6524	128	2142.2492599121
5	8388	129	2137.3524596574
5	8389	130	2131.8878382595
5	8755	131	2125.0831234546
5	8756	132	2116.8248920455
5	8964	133	2107.4648943418
5	8966	134	2097.9421336411
5	8967	135	2088.4111768255
5	8968	136	2078.8749703096
5	8969	137	2069.3430932637
5	8970	138	2059.8167614414
5	8971	139	2050.2783092723
5	8972	140	2040.3970742357
5	8973	141	2030.4086546074
5	8974	142	2020.419063058
5	8975	143	2010.4329719411
5	8976	144	2000.430017145
5	8977	145	1990.4418442594
5	8978	146	1980.4484720819
5	8979	147	1970.4560689805
5	8980	148	1960.4639678006
5	8981	149	1950.4604254197
5	8982	150	1940.4585782279
5	8983	151	1930.6496123993
5	8984	152	1920.9234159723
5	8985	153	1911.183460118
5	8987	154	1901.4511800744
5	8988	155	1891.7014527916
5	8989	156	1881.9818155282
5	8990	157	1872.2419791702
5	8991	158	1862.5200397313
5	8992	159	1852.7884105465
5	8993	160	1843.074120553
5	8994	161	1833.2106506098
5	8995	162	1823.1032080089
5	8996	163	1812.9957593867
5	8998	164	1802.990021441
5	8999	165	1793.0422975019
5	9000	166	1783.0930640738
5	9001	167	1773.1393928622
5	9002	168	1763.1786719277
5	9003	169	1753.2225572761
5	9004	170	1743.2613927793
5	9005	171	1733.3132472466
5	9006	172	1723.3574368709
5	9007	173	1713.3840086426
5	9008	174	1703.4267444029
5	9009	175	1693.4712832636
5	9010	176	1683.5215803741
5	9011	177	1673.5648045825
5	9012	178	1663.6117430056
5	9013	179	1653.6550775958
5	9014	180	1643.7078960164
5	9015	181	1633.7572810292
5	9016	182	1623.8033854605
5	9017	183	1613.9738194636
5	9019	184	1604.1660276421
5	9020	185	1594.357218307
5	9021	186	1584.5352883603
5	9022	187	1574.7227170181
5	9023	188	1564.9083979785
5	9024	189	1554.6812485781
5	9025	190	1544.1273524917
5	9026	191	1533.5794308569
5	9027	192	1523.0134852785
5	9028	193	1512.4561160846
5	9030	194	1501.6776626483
5	9031	195	1490.272594602
5	9032	196	1478.8564448332
5	9033	197	1467.4390377984
5	9034	198	1456.0145573477
5	9035	199	1444.1884304686
5	9036	200	1431.5676579935
54	34	33	4.4654144542034
54	35	34	5.0736288288642
54	36	35	6.5003253611678
54	37	36	7.8342005736709
54	38	37	8.2192715786142
54	39	38	2.0878491414744
54	40	39	1.852323959212
54	41	40	2.3105485279139
54	42	41	1.7784726977418
54	43	42	2.0052274149834
54	44	43	1.9008087301602
54	45	44	2.4409008440009
54	46	45	1.9310990962417
54	47	46	1.9198397040568
54	48	47	0.973
54	49	48	0.973
54	50	49	0.973
54	51	50	1.3608302694114
54	52	51	0.973
54	53	52	0.973
54	54	53	5.184935816776
54	55	54	5.8916614605314
54	56	55	6.3479702360366
54	57	56	7.921999441144
54	58	57	7.6510802982193
54	59	58	1.8372209578198
54	60	59	1.8615060243298
54	61	60	1.9847374119693
54	62	61	2.3743664181622
54	63	62	2.1246117638948
54	64	63	1.624125568904
54	65	64	2.1372042694608
54	66	65	1.9852002402299
54	67	66	1.9744675282212
54	68	67	2.1631406560481
54	69	68	2.0370422560844
54	70	69	1.9460966935023
54	71	70	2.2243258707623
54	72	71	2.1036918123919
54	73	72	1.8617874503507
54	74	73	2.2730233932817
54	76	74	2.0444548706331
54	77	75	1.7022264745836
54	78	76	2.1874513561743
54	79	77	1.9267802728359
54	80	78	2.1186333180245
54	81	79	1.8545368441952
54	82	80	1.9762726122655
54	83	81	2.329541735546
54	84	82	2.040845848095
54	85	83	2.1499178336586
54	86	84	1.8684832879437
54	87	85	2.0477387033513
54	206	86	1.8758011718824
54	207	87	2.1509465778145
54	2035	88	2.0563865205322
54	2036	89	1.977053419609
54	5345	90	2.1009433731572
54	5346	91	1.8506258357189
54	6154	92	2.2911419532241
54	6155	93	1.7938537849161
54	6301	94	2.2938724684127
54	6302	95	1.7424847504855
54	6303	96	2.1130616188835
54	6304	97	2.1594339358181
54	6305	98	0.973
54	6306	99	0.973
54	6307	100	0.973
54	6308	101	0.973
54	6309	102	0.973
54	6310	103	0.973
54	6312	104	0.973
54	6313	105	0.973
54	6314	106	0.973
54	6315	107	0.973
54	6316	108	0.973
54	6317	109	0.973
54	6318	110	0.973
54	6319	111	0.973
54	6320	112	0.973
54	6321	113	0.973
54	6322	114	0.973
54	6323	115	0.973
54	6324	116	0.973
54	6325	117	0.973
54	6326	118	0.973
54	6327	119	0.973
54	6328	120	0.973
54	6329	121	0.973
54	6330	122	0.973
54	6331	123	0.973
54	6333	124	0.973
54	6334	125	0.973
54	6335	126	0.973
54	6523	127	0.973
54	6524	128	0.973
54	8388	129	0.973
54	8389	130	0.973
54	8755	131	0.973
54	8756	132	0.973
54	8964	133	0.973
54	8966	134	0.973
54	8967	135	0.973
54	8968	136	0.973
54	8969	137	0.973
54	8970	138	0.973
54	8971	139	0.973
54	8972	140	0.973
54	8973	141	0.973
54	8974	142	0.973
54	8975	143	0.973
54	8976	144	0.973
54	8977	145	0.973
54	8978	146	0.973
54	8979	147	0.973
54	8980	148	0.973
54	8981	149	0.973
54	8982	150	0.973
54	8983	151	0.973
54	8984	152	0.973
54	8985	153	0.973
54	8987	154	2.4429325089686
54	8988	155	3.5315203736721
54	8989	156	4.6598011821656
54	8990	157	5.8842113914907
54	8991	158	6.5349593574427
54	8992	159	5.3232523579595
54	8993	160	0.973
54	8994	161	0.973
54	8995	162	0.973
54	8996	163	5.0843359309882
54	8998	164	5.2058262932514
54	8999	165	6.4796113080429
54	9000	166	7.6134976486534
54	9001	167	8.8789066815266
54	9002	168	2.1636625824367
54	9003	169	1.9646403371703
54	9004	170	2.1320612319563
54	9005	171	1.8204816449484
54	9006	172	2.1423381871159
54	9007	173	2.1275762754958
54	9008	174	2.0092495728036
54	9009	175	2.0676779761931
54	9010	176	1.8775909671115
54	9011	177	2.2660221507851
54	9012	178	1.727173889423
54	9013	179	2.2719105086863
54	9014	180	1.9586295959805
54	9015	181	2.1285354506244
54	9016	182	2.084914153992
54	9017	183	1.6693626786142
54	9019	184	2.1181737627298
54	9020	185	1.9340219765248
54	9021	186	2.2853528835894
54	9022	187	2.1194837324468
54	9023	188	1.7077291725858
54	9024	189	2.1249402082979
54	9025	190	2.1647278039944
54	9026	191	2.1160962652217
54	9027	192	1.82649188015
54	9028	193	2.2693149863805
54	9030	194	1.8236581194687
54	9031	195	2.0398467604319
54	9032	196	2.1403792282729
54	9033	197	1.9829317033568
54	9034	198	1.8596890768758
54	9035	199	2.1980614374704
54	9036	200	1.9106015098291
53	34	33	2.1108386883535
53	35	34	1.8691156523162
53	36	35	2.0254057548312
53	37	36	2.0776507037738
53	38	37	1.8608188961036
53	39	38	0.019533643305767
53	40	39	-0.049742171096149
53	41	40	0.085004836751613
53	42	41	-0.072280976942274
53	43	42	-0.0040022042999048
53	44	43	-0.034438937976956
53	45	44	0.1234809487802
53	46	45	-0.028024048998487
53	47	46	-0.03053516549291
53	48	47	-1.188999807438
53	49	48	-2.3713316985366
53	50	49	-2.2913019514486
53	51	50	-0.092053512224842
53	52	51	-2.7327694335153
53	53	52	-1.3258765114396
53	54	53	2.4693662577961
53	55	54	2.12749273255
53	56	55	1.8702119333204
53	57	56	2.0340334144491
53	58	57	1.6642719219845
53	59	58	-0.058081688408274
53	60	59	-0.04952470080927
53	61	60	-0.012338334685191
53	62	61	0.10040123965824
53	63	62	0.02542294482002
53	64	63	-0.12030795856379
53	65	64	0.032031546502841
53	66	65	-0.012925733730663
53	67	66	-0.015671704655979
53	68	67	0.03940826722188
53	69	68	0.0017723501380527
53	70	69	-0.024625178959687
53	71	70	0.056483946428635
53	72	71	0.019981009552721
53	73	72	-0.050489340359347
53	74	73	0.069578633683269
53	76	74	0.0017572802235364
53	77	75	-0.097424090469721
53	78	76	0.045881251569371
53	79	77	-0.030813149621245
53	80	78	0.025573528825772
53	81	79	-0.051661419356241
53	82	80	-0.014855802219827
53	83	81	0.087579179583118
53	84	82	0.0017236252827555
53	85	83	0.033052734031809
53	86	84	-0.049067566599698
53	87	85	0.0041363581782203
53	206	86	-0.045763913826086
53	207	87	0.035181148496923
53	2035	88	0.0068244753940956
53	2036	89	-0.016301492801867
53	5345	90	0.019963817307726
53	5346	91	-0.053079487648793
53	6154	92	0.075722418022343
53	6155	93	-0.070170230655931
53	6301	94	0.076312943024094
53	6302	95	-0.08528355127666
53	6303	96	0.024592802750412
53	6304	97	0.03718590477947
53	6305	98	-0.57785092230789
53	6306	99	-2.4499021690695
53	6307	100	-2.3467505322514
53	6308	101	-2.1229255703525
53	6309	102	-2.1260965904317
53	6310	103	-1.6392761368338
53	6312	104	-2.693382000087
53	6313	105	0
53	6314	106	0
53	6315	107	0
53	6316	108	0
53	6317	109	0
53	6318	110	0
53	6319	111	0
53	6320	112	0
53	6321	113	0
53	6322	114	0
53	6323	115	0
53	6324	116	0
53	6325	117	0
53	6326	118	0
53	6327	119	0
53	6328	120	0
53	6329	121	0
53	6330	122	0
53	6331	123	0
53	6333	124	0
53	6334	125	0
53	6335	126	0
53	6523	127	0
53	6524	128	0
53	8388	129	0
53	8389	130	0
53	8755	131	0
53	8756	132	0
53	8964	133	0
53	8966	134	0
53	8967	135	0
53	8968	136	0
53	8969	137	0
53	8970	138	0
53	8971	139	0
53	8972	140	0
53	8973	141	0
53	8974	142	0
53	8975	143	0
53	8976	144	0
53	8977	145	0
53	8978	146	0
53	8979	147	0
53	8980	148	0
53	8981	149	0
53	8982	150	0
53	8983	151	0
53	8984	152	0
53	8985	153	0
53	8987	154	2.2528882954705
53	8988	155	2.1005725770559
53	8989	156	2.0752079472481
53	8990	157	2.0958617531182
53	8991	158	1.9144283985696
53	8992	159	1.2439246961752
53	8993	160	-3.2068671224403
53	8994	161	-2.8439433089613
53	8995	162	-2.2726038488387
53	8996	163	2.5683401691262
53	8998	164	1.937024977915
53	8999	165	2.0170811643871
53	9000	166	2.0140458237287
53	9001	167	2.0387689003104
53	9002	168	0.03789839392528
53	9003	169	-0.020608705938795
53	9004	170	0.028265631911346
53	9005	171	-0.062594080639538
53	9006	172	0.032305392725394
53	9007	173	0.027039515997748
53	9008	174	-0.0078540270263332
53	9009	175	0.0092151745897731
53	9010	176	-0.045967121717986
53	9011	177	0.067339024876709
53	9012	178	-0.090218058265744
53	9013	179	0.069806029084138
53	9014	180	-0.02253455437487
53	9015	181	0.027101504798047
53	9016	182	0.013727060921957
53	9017	183	-0.10703457464231
53	9019	184	0.02618755134754
53	9020	185	-0.027926731135231
53	9021	186	0.074371030491312
53	9022	187	0.024299187660217
53	9023	188	-0.095604977235199
53	9024	189	0.028100047213957
53	9025	190	0.038675775115843
53	9026	191	0.023466272316874
53	9027	192	-0.060895803824533
53	9028	193	0.068661488352809
53	9030	194	-0.061915475230199
53	9031	195	0.0024166095582778
53	9032	196	0.031337671924847
53	9033	197	-0.015015054491814
53	9034	198	-0.050336461495608
53	9035	199	0.049033490207512
53	9036	200	-0.035510899745859
52	33	32	3.8781328956006
52	34	33	5.9889715839541
52	35	34	7.8580872362704
52	36	35	9.8834929911015
52	37	36	11.961143694875
52	38	37	13.821962590979
52	39	38	13.841496234285
52	40	39	13.791754063189
52	41	40	13.87675889994
52	42	41	13.804477922998
52	43	42	13.800475718698
52	44	43	13.766036780721
52	45	44	13.889517729501
52	46	45	13.861493680503
52	47	46	13.83095851501
52	48	47	12.641958707572
52	49	48	10.270627009035
52	50	49	7.9793250575866
52	51	50	7.8872715453617
52	52	51	5.1545021118464
52	53	52	3.8286256004068
52	54	53	6.2979918582029
[...]
49	8970	138	1.301798220859
49	8971	139	1.6852482078551
49	8972	140	0.973
49	8973	141	1.8920808642331
49	8974	142	0.973
49	8975	143	2.4484310326454
49	8976	144	0.973
49	8977	145	3.6317937279169
49	8978	146	4.8648407507348
49	8979	147	6.4972269444378
49	8980	148	7.2816087826556
49	8981	149	7.5990189021985
49	8982	150	4.5591054084666
49	8983	151	1.9016730852031
49	8984	152	2.0986160602373
49	8985	153	1.8913510163998
49	8987	154	2.0480330298232
49	8988	155	2.2811608405832
49	8989	156	1.643420895769
49	8990	157	2.3750554495132
49	8991	158	1.762982106466
49	8992	159	2.0922353636345
49	8993	160	2.0352259295592
49	8994	161	1.8635568121843
49	8995	162	2.3859601484965
49	8996	163	2.06784594053
49	8998	164	1.686838665895
49	8999	165	2.0595738432223
49	9000	166	2.276300263208
49	9001	167	1.735511575793
49	9002	168	2.3046667728345
49	9003	169	2.1133776428981
49	9004	170	1.7301507949463
49	9005	171	2.0936711096387
49	9006	172	2.1542459111535
49	9007	173	2.0573783031912
49	9008	174	2.0328379109625
49	9009	175	2.1922742309598
49	9010	176	1.8633202834042
49	9011	177	2.149720515273
49	9012	178	2.0378634878787
49	9013	179	2.051679147445
49	9014	180	2.0186722991615
49	9015	181	1.7906648685066
49	9016	182	2.2327002992309
49	9017	183	2.0353199468576
49	9019	184	1.7434182125078
49	9020	185	2.1327350259785
49	9021	186	2.2679690015933
49	9022	187	1.9433705220726
49	9023	188	1.8377789393573
49	9024	189	1.9729368675087
49	9025	190	2.3616900553168
49	9026	191	1.7404084652403
49	9027	192	2.0651826249807
49	9028	193	2.3372085391536
49	9030	194	1.963861445121
49	9031	195	1.8092106457634
49	9032	196	2.2316589224365
49	9033	197	2.13126449009
49	9034	198	1.6848847184049
49	9035	199	1.9924664758703
49	9036	200	2.2186151260445
48	31	30	1.9568191743502
48	32	31	1.9572691578092
48	33	32	1.7314382667607
48	34	33	1.713887941076
48	35	34	1.7811930986517
48	36	35	0.5455487020282
48	37	36	0.014625610450748
48	38	37	-0.12835575377569
48	39	38	0.086069189966656
48	40	39	-0.0032880703615952
48	41	40	0.0367009765096
48	42	41	-0.10748315524077
48	43	42	0.050165324136614
48	44	43	0.053652309875471
48	45	44	-1.3927549439091
48	46	45	-2.3100111124945
48	47	46	-2.2251499659377
48	48	47	-0.048479581583107
48	49	48	-2.7187145226647
48	50	49	-1.3405991529233
48	51	50	2.332728817747
48	52	51	2.0231203507166
48	53	52	1.8883653629874
48	54	53	2.006740005943
48	55	54	1.8673009272524
48	56	55	-0.084638701267542
48	57	56	0.09849415921839
48	58	57	0.00537992921425
48	59	58	-0.064389257105066
48	60	59	-0.0091464570048263
48	61	60	0.081863851931411
48	62	61	0.011321710660123
48	63	62	-0.12257896858733
48	64	63	0.095039613645058
48	65	64	-0.041067937707995
48	66	65	0.023292321457994
48	67	66	-0.034027653224767
48	68	67	0.069706433343235
48	69	68	-0.061600774463731
48	70	69	0.055408083661458
48	71	70	-0.027394999936222
48	72	71	0.014955741502344
48	73	72	-0.081735791058746
48	74	73	0.07110673281597
48	76	74	0.03683202761691
48	77	75	-0.047641739291139
48	78	76	0.041505734035745
48	79	77	-0.055693347149063
48	80	78	-0.060849470170213
48	81	79	0.0160685518221
48	82	80	0.030786899500526
48	83	81	-0.029142764753198
48	84	82	0.10338073273888
48	85	83	-0.062786457769107
48	86	84	0.012529305473436
48	87	85	-0.07114103670232
48	206	86	0.027723220291083
48	207	87	0.04872392643243
48	2035	88	0.03577303858474
48	2036	89	0.012846215711905
48	5345	90	-0.12471747037256
48	5346	91	-0.0012042467202988
48	6154	92	0.0548298295727
48	6155	93	0.071047680857591
48	6301	94	-0.0086013939091938
48	6302	95	-0.058015003560577
48	6303	96	-1.8905416839451
48	6304	97	-2.4210490806034
48	6305	98	-2.3446551804299
48	6306	99	-2.1288214502022
48	6307	100	-1.8070017107317
48	6308	101	-1.3787561401536
48	6309	102	-1.0892962835227
48	6310	103	-0.43374646576275
48	6312	104	-0.43767592979815
48	6313	105	-1.4395228480936e-05
48	6314	106	0
48	6315	107	0
48	6316	108	0
48	6317	109	0
48	6318	110	0
48	6319	111	0
48	6320	112	0
48	6321	113	0
48	6322	114	0
48	6323	115	0
48	6324	116	0
48	6325	117	0
48	6326	118	0
48	6327	119	0
48	6328	120	0
48	6329	121	0
48	6330	122	0
48	6331	123	0
48	6333	124	0.19433738710931
48	6334	125	0.24082393644038
48	6335	126	0.0012082713644486
48	6523	127	-0.012673812662958
48	6524	128	0.009810221343193
48	8388	129	-0.0046779669506941
48	8389	130	0.015721938294724
48	8755	131	0.77391522598521
48	8756	132	0.74337559854627
48	8964	133	0.5510745483468
48	8966	134	0.43352212091523
48	8967	135	0.43606214677679
48	8968	136	0.27667514061965
48	8969	137	0.27478859190367
48	8970	138	-0.0036013361932286
48	8971	139	0.35040229140405
48	8972	140	-0.16894622671429
48	8973	141	0.4959703015707
48	8974	142	-0.56481324849572
48	8975	143	0.91138790278822
48	8976	144	-1.2044088570048
48	8977	145	1.7062252531966
48	8978	146	1.8977374664182
48	8979	147	2.1239184190473
48	8980	148	1.9837532304577
48	8981	149	1.7679876518249
48	8982	150	0.74877938138689
48	8983	151	-0.038986439798029
48	8984	152	0.019033402765636
48	8985	153	-0.041445179483853
48	8987	154	0.0051127103483299
48	8988	155	0.072027522230055
48	8989	156	-0.11453917977167
48	8990	157	0.10039914753521
48	8991	158	-0.079316215631552
48	8992	159	0.018383460652549
48	8993	160	0.0013473963644355
48	8994	161	-0.048521068105474
48	8995	162	0.10379865516908
48	8996	163	0.0090687707741743
48	8998	164	-0.10164035418769
48	8999	165	0.0094685785728501
48	9000	166	0.071647336711177
48	9001	167	-0.086952252942138
48	9002	168	0.080316083179788
48	9003	169	0.022720536484847
48	9004	170	-0.08889446524903
48	9005	171	0.019083156308625
48	9006	172	0.035964823763351
48	9007	173	0.0069304137304425
48	9008	174	-0.00035645538940976
48	9009	175	0.04552270765882
48	9010	176	-0.050631316876972
48	9011	177	0.033471430959182
48	9012	178	0.00026650133309758
48	9013	179	0.0042365497746513
48	9014	180	-0.0053941953624594
48	9015	181	-0.071269305818715
48	9016	182	0.058567956429906
48	9017	183	-6.5417133736645e-05
48	9019	184	-0.084727542763575
48	9020	185	0.030632965434341
48	9021	186	0.068537401121576
48	9022	187	-0.027022941522301
48	9023	188	-0.056925138975494
48	9024	189	-0.016102756822946
48	9025	190	0.096483322430867
48	9026	191	-0.085862899189815
48	9027	192	0.010801560597029
48	9028	193	0.088714438122697
48	9030	194	-0.021384297534825
48	9031	195	-0.065634417301043
48	9032	196	0.058402181286365
48	9033	197	0.027672596483026
48	9034	198	-0.1023591803899
48	9035	199	-0.010166514993179
48	9036	200	0.055532860367093
47	30	29	4.1885270936726
47	31	30	6.1453462680228
47	32	31	8.102615425832
47	33	32	9.8340536925927
47	34	33	11.547941633669
47	35	34	13.32913473232
47	36	35	13.874683434349
47	37	36	13.889309044799
47	38	37	13.760953291024
47	39	38	13.84702248099
47	40	39	13.843734410629
47	41	40	13.880435387138
47	42	41	13.772952231898
47	43	42	13.823117556034
47	44	43	13.87676986591
47	45	44	12.484014922
47	46	45	10.174003809506
47	47	46	7.9488538435683
47	48	47	7.9003742619851
47	49	48	5.1816597393205
47	50	49	3.8410605863972
47	51	50	6.1737894041441
47	52	51	8.1969097548608
47	53	52	10.085275117848
47	54	53	12.092015123791
47	55	54	13.959316051044
47	56	55	13.874677349776
47	57	56	13.973171508994
47	58	57	13.978551438209
47	59	58	13.914162181104
47	60	59	13.905015724099
47	61	60	13.98687957603
47	62	61	13.99820128669
47	63	62	13.875622318103
47	64	63	13.970661931748
47	65	64	13.92959399404
47	66	65	13.952886315498
47	67	66	13.918858662273
47	68	67	13.988565095617
47	69	68	13.926964321153
47	70	69	13.982372404814
47	71	70	13.954977404878
47	72	71	13.96993314638
47	73	72	13.888197355322
47	74	73	13.959304088138
47	76	74	13.996136115754
47	77	75	13.948494376463
47	78	76	13.990000110499
47	79	77	13.93430676335
47	80	78	13.87345729318
47	81	79	13.889525845002
47	82	80	13.920312744502
47	83	81	13.891169979749
47	84	82	13.994550712488
47	85	83	13.931764254719
47	86	84	13.944293560192
47	87	85	13.87315252349
47	206	86	13.900875743781
47	207	87	13.949599670214
47	2035	88	13.985372708798
47	2036	89	13.99821892451
47	5345	90	13.873501454138
47	5346	91	13.872297207417
47	6154	92	13.92712703699
47	6155	93	13.998174717848
47	6301	94	13.989573323939
47	6302	95	13.931558320378
47	6303	96	12.041016636433
47	6304	97	9.6199675558295
47	6305	98	7.2753123753996
47	6306	99	5.1464909251974
47	6307	100	3.3394892144657
47	6308	101	1.9607330743121
47	6309	102	0.87143679078938
47	6310	103	0.43769032502663
47	6312	104	1.4395228480936e-05
47	6313	105	0
47	6314	106	0
47	6315	107	0
47	6316	108	0
47	6317	109	0
47	6318	110	0
47	6319	111	0
47	6320	112	0
47	6321	113	0
47	6322	114	0
47	6323	115	0
47	6324	116	0
47	6325	117	0
47	6326	118	0
47	6327	119	0
47	6328	120	0
47	6329	121	0
47	6330	122	0
47	6331	123	0
47	6333	124	0.19433738710931
47	6334	125	0.43516132354969
47	6335	126	0.43636959491414
47	6523	127	0.42369578225118
47	6524	128	0.43350600359438
47	8388	129	0.42882803664368
47	8389	130	0.44454997493841
47	8755	131	1.2184652009236
47	8756	132	1.9618407994699
47	8964	133	2.5129153478167
47	8966	134	2.9464374687319
47	8967	135	3.3824996155087
47	8968	136	3.6591747561284
47	8969	137	3.933963348032
47	8970	138	3.9303620118388
47	8971	139	4.2807643032428
47	8972	140	4.1118180765286
47	8973	141	4.6077883780993
47	8974	142	4.0429751296035
47	8975	143	4.9543630323918
47	8976	144	3.7499541753869
47	8977	145	5.4561794285835
47	8978	146	7.3539168950017
47	8979	147	9.477835314049
47	8980	148	11.461588544507
47	8981	149	13.229576196332
47	8982	150	13.978355577718
47	8983	151	13.93936913792
47	8984	152	13.958402540686
47	8985	153	13.916957361202
47	8987	154	13.922070071551
47	8988	155	13.994097593781
47	8989	156	13.879558414009
47	8990	157	13.979957561544
47	8991	158	13.900641345913
47	8992	159	13.919024806565
47	8993	160	13.92037220293
47	8994	161	13.871851134824
47	8995	162	13.975649789993
47	8996	163	13.984718560767
47	8998	164	13.88307820658
47	8999	165	13.892546785153
47	9000	166	13.964194121864
47	9001	167	13.877241868922
47	9002	168	13.957557952101
47	9003	169	13.980278488586
47	9004	170	13.891384023337
47	9005	171	13.910467179646
47	9006	172	13.946432003409
47	9007	173	13.95336241714
47	9008	174	13.95300596175
47	9009	175	13.998528669409
47	9010	176	13.947897352532
47	9011	177	13.981368783491
47	9012	178	13.981635284824
47	9013	179	13.985871834599
47	9014	180	13.980477639236
47	9015	181	13.909208333418
47	9016	182	13.967776289848
47	9017	183	13.967710872714
47	9019	184	13.88298332995
47	9020	185	13.913616295385
47	9021	186	13.982153696506
47	9022	187	13.955130754984
47	9023	188	13.898205616008
47	9024	189	13.882102859186
47	9025	190	13.978586181616
47	9026	191	13.892723282427
47	9027	192	13.903524843024
47	9028	193	13.992239281146
47	9030	194	13.970854983611
47	9031	195	13.90522056631
47	9032	196	13.963622747597
47	9033	197	13.99129534408
47	9034	198	13.88893616369
47	9035	199	13.878769648697
47	9036	200	13.934302509064
46	29	28	1578.4646326732
46	30	29	1579.5986517062
46	31	30	1581.7423672481
46	32	31	1586.9080099538
46	33	32	1593.3719751006
46	34	33	1601.0871393541
46	35	34	1610.0351614747
46	36	35	1619.8598473864
46	37	36	1629.6911440864
46	38	37	1639.530417718
46	39	38	1649.6739925323
46	40	39	1661.6279815631
46	41	40	1673.8816657187
46	42	41	1682.7560368627
46	43	42	1692.0128514823
46	44	43	1695.5999165168
46	45	44	1697.306546744
46	46	45	1698.4143366097
46	47	46	1699.2522509955
46	48	47	1699.99092039
46	49	48	1700.585499499
46	50	49	1700.9266446279
46	51	50	1701.4301908994
46	52	51	1707.6362714609
46	53	52	1716.7571854917
46	54	53	1727.8339322917
46	55	54	1740.8635680582
46	56	55	1754.6674355241
46	57	56	1768.5924180076
46	58	57	1782.4900942137
46	59	58	1796.3835249227
46	60	59	1810.295890959
46	61	60	1824.2029342465
46	62	61	1838.1324145859
46	63	62	1851.9968899293
46	64	63	1865.8873176025
46	65	64	1879.8015412651
46	66	65	1893.708773436
46	67	66	1907.6108170124
46	68	67	1921.518198492
46	69	68	1935.436019076
46	70	69	1949.3382818336
46	71	70	1963.2310220618
46	72	71	1977.1150795827
46	73	72	1991.0261905957
46	74	73	2004.9076367822
46	76	74	2018.7962823557
46	77	75	2032.6964808721
46	78	76	2046.5920114908
46	79	77	2060.4812892936
46	80	78	2074.3615958327
46	81	79	2088.2480693581
46	82	80	2101.8726252643
46	83	81	2112.9942486044
46	84	82	2119.4660495203
46	85	83	2120.7221720051
46	86	84	2120.2512520831
46	87	85	2119.7810029797
46	206	86	2119.3106335914
46	207	87	2118.8392896932
46	2035	88	2118.3685813732
46	2036	89	2117.8980129417
46	5345	90	2117.4275846118
46	5346	91	2116.9582713638
46	6154	92	2116.4884188175
46	6155	93	2116.0180879394
46	6301	94	2115.548028009
46	6302	95	2113.74414647
46	6303	96	2111.9098673593
46	6304	97	2109.5776483761
46	6305	98	2106.9086164571
46	6306	99	2104.9482955551
46	6307	100	2103.6221258501
46	6308	101	2102.8273415193
46	6309	102	2102.4073225409
46	6310	103	2102.2268961994
46	6312	104	2102.1322235567
46	6313	105	2102.1322235567
46	6314	106	2102.1322235567
46	6315	107	2102.1322235567
46	6316	108	2102.1322235567
46	6317	109	2102.1322235567
46	6318	110	2102.1322235567
46	6319	111	2102.1322235567
46	6320	112	2102.1322235567
46	6321	113	2102.1322235567
46	6322	114	2102.1322235567
46	6323	115	2102.1322235567
46	6324	116	2102.1322235567
46	6325	117	2102.1322235567
46	6326	118	2102.1322235567
46	6327	119	2102.1322235567
46	6328	120	2102.1322235567
46	6329	121	2102.1322235567
46	6330	122	2102.1322235567
46	6331	123	2102.1322235567
46	6333	124	2102.1259817518
46	6334	125	2101.9882108336
46	6335	126	2101.8478779094
46	6523	127	2101.7073882846
46	6524	128	2101.5669867164
46	8388	129	2101.4265308846
46	8389	130	2101.2852961505
46	8755	131	2101.000385182
46	8756	132	2100.4734443594
46	8964	133	2099.7511616461
46	8966	134	2098.8485082816
46	8967	135	2097.5965743391
46	8968	136	2095.7757134633
46	8969	137	2093.871595718
46	8970	138	2091.8270449489
46	8971	139	2089.7589425417
46	8972	140	2087.5383233568
46	8973	141	2085.3655733122
46	8974	142	2083.0408668658
46	8975	143	2080.8376574488
46	8976	144	2078.4378784224
46	8977	145	2076.2410430415
46	8978	146	2072.0273663756
46	8979	147	2065.8129498111
46	8980	148	2058.0634938627
46	8981	149	2048.955302042
46	8982	150	2038.8475327864
46	8983	151	2028.6839817949
46	8984	152	2018.4942049505
46	8985	153	2008.3384456392
46	8987	154	1998.1752126394
46	8988	155	1988.0013468862
46	8989	156	1977.8477251129
46	8990	157	1968.1372182956
46	8991	158	1958.428521567
46	8992	159	1948.7192585878
46	8993	160	1939.0039528357
46	8994	161	1929.2969896654
46	8995	162	1919.5830697538
46	8996	163	1909.8708017636
46	8998	164	1900.1520221233
46	8999	165	1890.4362350507
46	9000	166	1880.7314129742
46	9001	167	1871.0113330241
46	9002	168	1861.0431125415
46	9003	169	1851.0759320185
46	9004	170	1841.1157224346
46	9005	171	1831.1472358843
46	9006	172	1821.1673578955
46	9007	173	1811.1886689328
46	9008	174	1801.2094074348
46	9009	175	1791.2230627416
46	9010	176	1781.2467274256
46	9011	177	1771.2606067006
46	9012	178	1761.5218001567
46	9013	179	1751.9181487132
46	9014	180	1742.3197343256
46	9015	181	1732.5774305519
46	9016	182	1722.8092018766
46	9017	183	1713.062065619
46	9019	184	1703.3276272248
46	9020	185	1693.569816296
46	9021	186	1683.8193431376
46	9022	187	1674.062806488
46	9023	188	1664.3184313681
46	9024	189	1654.5703159142
46	9025	190	1644.8042302104
46	9026	191	1635.0494071934
46	9027	192	1625.2971894275
46	9028	193	1615.5324970931
46	9030	194	1605.7759667356
46	9031	195	1596.0376000563
46	9032	196	1586.2853312073
46	9033	197	1576.5166116562
46	9034	198	1566.7646448053
46	9035	199	1557.0013428042
46	9036	200	1547.2325336644
45	29	28	2414.8387287854
45	30	29	2411.7503977651
45	31	30	2406.9754091416
45	32	31	2401.8753644078
45	33	32	2395.4934844975
45	34	33	2387.8762943314
45	35	34	2379.0419022342
45	36	35	2369.3419790111
45	37	36	2359.6355289492
45	38	37	2349.9212032534
45	39	38	2340.5628082656
45	40	39	2334.465267002
45	41	40	2338.0647009534
45	42	41	2348.6530792566
45	43	42	2358.9176140998
45	44	43	2371.8809477445
45	45	44	2384.8846471948
45	46	45	2396.1797201078
45	47	46	2405.0412241777
45	48	47	2412.8531461995
45	49	48	2419.1412172525
45	50	49	2423.1282091528
45	51	50	2428.3117442011
45	52	51	2431.1873857466
45	53	52	2432.5734357862
45	54	53	2434.2567018807
45	55	54	2436.2367366786
45	56	55	2438.1671750253
45	57	56	2439.0675805615
45	58	57	2440.0469834617
45	59	58	2441.0572698959
45	60	59	2442.0689332474
45	61	60	2443.0802095452
45	62	61	2444.0931173948
45	63	62	2445.1012982862
45	64	63	2446.1113663492
45	65	64	2447.1231647814
45	66	65	2448.1344548143
45	67	66	2449.145367549
45	68	67	2450.1566684392
45	69	68	2450.0994799006
45	70	69	2448.9856324941
45	71	70	2447.8725480314
45	72	71	2446.7601592259
45	73	72	2445.6456028984
45	74	73	2444.5334233128
45	76	74	2443.4206669133
45	77	75	2442.3069848935
45	78	76	2441.193676865
45	79	77	2440.1459298433
45	80	78	2439.206466924
45	81	79	2438.5993521463
45	82	80	2436.1994622689
45	83	81	2427.9942116053
45	84	82	2415.6925457548
45	85	83	2401.9525696691
45	86	84	2388.0100685152
45	87	85	2374.087428232
45	206	86	2360.1612266978
45	207	87	2346.2061729017
45	2035	88	2332.2699366264
45	2036	89	2318.3378420154
45	5345	90	2304.409895408
45	5346	91	2290.5149629482
45	6154	92	2276.6040635206
45	6155	93	2262.6790021491
45	6301	94	2248.7619627055
45	6302	95	2234.9580689138
45	6303	96	2222.0230961731
45	6304	97	2211.6592596417
45	6305	98	2203.7895711446
45	6306	99	2198.0095297953
45	6307	100	2194.0992946274
45	6308	101	2191.7558587702
45	6309	102	2190.5174252767
45	6310	103	2189.9854349719
45	6312	104	2189.7062909862
45	6313	105	2189.7062909862
45	6314	106	2189.7062909862
45	6315	107	2189.7062909862
45	6316	108	2189.7062909862
45	6317	109	2189.7062909862
45	6318	110	2189.7062909862
45	6319	111	2189.7062909862
45	6320	112	2189.7062909862
45	6321	113	2189.7062909862
45	6322	114	2189.7062909862
45	6323	115	2189.7062909862
45	6324	116	2189.7062909862
45	6325	117	2189.7062909862
45	6326	118	2189.7062909862
45	6327	119	2189.7062909862
45	6328	120	2189.7062909862
45	6329	121	2189.7062909862
45	6330	122	2189.7062909862
45	6331	123	2189.7062909862
45	6333	124	2189.6878869104
45	6334	125	2189.2816668886
45	6335	126	2188.8678927439
45	6523	127	2188.4536565633
45	6524	128	2188.0396800207
45	8388	129	2187.6255434804
45	8389	130	2187.2091103337
45	8755	131	2186.3690452309
45	8756	132	2184.8153507638
45	8964	133	2182.6856872246
45	8966	134	2180.0241975846
45	8967	135	2177.1370105004
45	8968	136	2174.0439075372
45	8969	137	2170.8093758288
45	8970	138	2167.3362900337
45	8971	139	2163.8231969853
45	8972	140	2160.0510231358
45	8973	141	2156.3601647676
45	8974	142	2152.4111775095
45	8975	143	2148.6685776961
45	8976	144	2144.5920643745
45	8977	145	2140.8602921581
45	8978	146	2135.9550287192
45	8979	147	2130.1335673057
45	8980	148	2122.8741313949
45	8981	149	2114.3418763265
45	8982	150	2104.8732499345
45	8983	151	2095.3523690427
45	8984	152	2085.806920634
45	8985	153	2076.2933387328
45	8987	154	2066.772755726
45	8988	155	2057.2422123047
45	8989	156	2047.6973271382
45	8990	157	2037.7081104055
45	8991	158	2027.7207557153
45	8992	159	2017.7328185209
45	8993	160	2007.7386651151
45	8994	161	1997.7530937396
45	8995	162	1987.7603659503
45	8996	163	1977.7693374961
45	8998	164	1967.7716104945
45	8999	165	1957.7769619537
45	9000	166	1947.7935931241
45	9001	167	1937.7945284919
45	9002	168	1928.0610866472
45	9003	169	1918.3345430271
45	9004	170	1908.6148020471
45	9005	171	1898.8869839311
45	9006	172	1889.1480493994
45	9007	173	1879.410275187
45	9008	174	1869.6719422619
45	9009	175	1859.9266971514
45	9010	176	1850.1912197614
45	9011	177	1840.4461932115
45	9012	178	1830.4934061462
45	9013	179	1820.3815860292
45	9014	180	1810.2752800833
45	9015	181	1800.3001445349
45	9016	182	1790.3326916425
45	9017	183	1780.3867613494
45	9019	184	1770.4537878942
45	9020	185	1760.4969652192
45	9021	186	1750.5476299695
45	9022	187	1740.5921075626
45	9023	188	1730.648994721
45	9024	189	1720.7020652612
45	9025	190	1710.7367990456
45	9026	191	1700.7830252214
45	9027	192	1690.8319097828
45	9028	193	1680.8680653544
45	9030	194	1670.912549368
45	9031	195	1660.9755675099
45	9032	196	1651.0243999464
45	9033	197	1641.0564461654
45	9034	198	1631.105586759
45	9035	199	1621.1431610209
45	9036	200	1611.3512300194

