version 2
run WithChannelSwitching-0-20201102-00:37:21-15368
attr configname WithChannelSwitching
attr datetime 20201102-00:37:21
attr experiment WithChannelSwitching
attr inifile omnetpp.ini
attr iterationvars ""
attr iterationvarsf ""
attr measurement ""
attr network RSUExampleScenario
attr processid 15368
attr repetition 0
attr replication #0
attr resultdir results
attr runnumber 0
attr seedset 0
param *.**.nic.mac1609_4.useServiceChannel true
param *.node[*].appl.dataOnSch true
param *.rsu[*].appl.dataOnSch true
param *.playgroundSizeX 2500m
param *.playgroundSizeY 2500m
param *.playgroundSizeZ 50m
param *.annotations.draw true
param *.obstacles.obstacles "xmldoc(\"config.xml\", \"//AnalogueModel[@type='SimpleObstacleShadowing']/obstacles\")"
param *.manager.updateInterval 1s
param *.manager.host "\"localhost\""
param *.manager.port 9999
param *.manager.autoShutdown true
param *.manager.launchConfig "xmldoc(\"erlangen.launchd.xml\")"
param *.rsu[0].mobility.x 2000
param *.rsu[0].mobility.y 2000
param *.rsu[0].mobility.z 3
param *.rsu[*].applType "\"TraCIDemoRSU11p\""
param *.rsu[*].appl.headerLength "80 bit"
param *.rsu[*].appl.sendBeacons false
param *.rsu[*].appl.dataOnSch false
param *.rsu[*].appl.beaconInterval 1s
param *.rsu[*].appl.beaconUserPriority 7
param *.rsu[*].appl.dataUserPriority 5
param *.rsu[*].nic.phy80211p.antennaOffsetZ "0 m"
param *.connectionManager.sendDirect true
param *.connectionManager.maxInterfDist 2600m
param *.connectionManager.drawMaxIntfDist false
param *.**.nic.mac1609_4.useServiceChannel false
param *.**.nic.mac1609_4.txPower 20mW
param *.**.nic.mac1609_4.bitrate 6Mbps
param *.**.nic.phy80211p.minPowerLevel -110dBm
param *.**.nic.phy80211p.useNoiseFloor true
param *.**.nic.phy80211p.noiseFloor -98dBm
param *.**.nic.phy80211p.decider "xmldoc(\"config.xml\")"
param *.**.nic.phy80211p.analogueModels "xmldoc(\"config.xml\")"
param *.**.nic.phy80211p.usePropagationDelay true
param *.**.nic.phy80211p.antenna "xmldoc(\"antenna.xml\", \"/root/Antenna[@id='monopole']\")"
param *.node[*].nic.phy80211p.antennaOffsetY "0 m"
param *.node[*].nic.phy80211p.antennaOffsetZ "1.895 m"
param *.node[*].applType "\"TraCIDemo11p\""
param *.node[*].appl.headerLength "80 bit"
param *.node[*].appl.sendBeacons false
param *.node[*].appl.dataOnSch false
param *.node[*].appl.beaconInterval 1s
param *.node[*].veinsmobility.x 0
param *.node[*].veinsmobility.y 0
param *.node[*].veinsmobility.z 0
param *.node[*].veinsmobility.setHostSpeed false
param *.node[*0].veinsmobility.accidentCount 1
param *.node[*0].veinsmobility.accidentStart 73s
param *.node[*0].veinsmobility.accidentDuration 50s

vector 0 RSUExampleScenario.node[0].veinsmobility posx ETV
vector 1 RSUExampleScenario.node[0].veinsmobility posy ETV
vector 2 RSUExampleScenario.node[0].veinsmobility speed ETV
vector 3 RSUExampleScenario.node[0].veinsmobility acceleration ETV
vector 4 RSUExampleScenario.node[0].veinsmobility co2emission ETV
vector 5 RSUExampleScenario.node[1].veinsmobility posx ETV
vector 6 RSUExampleScenario.node[1].veinsmobility posy ETV
vector 7 RSUExampleScenario.node[1].veinsmobility speed ETV
vector 8 RSUExampleScenario.node[1].veinsmobility acceleration ETV
vector 9 RSUExampleScenario.node[1].veinsmobility co2emission ETV
vector 10 RSUExampleScenario.node[2].veinsmobility posx ETV
vector 11 RSUExampleScenario.node[2].veinsmobility posy ETV
vector 12 RSUExampleScenario.node[2].veinsmobility speed ETV
vector 13 RSUExampleScenario.node[2].veinsmobility acceleration ETV
vector 14 RSUExampleScenario.node[2].veinsmobility co2emission ETV
vector 15 RSUExampleScenario.node[3].veinsmobility posx ETV
vector 16 RSUExampleScenario.node[3].veinsmobility posy ETV
vector 17 RSUExampleScenario.node[3].veinsmobility speed ETV
vector 18 RSUExampleScenario.node[3].veinsmobility acceleration ETV
vector 19 RSUExampleScenario.node[3].veinsmobility co2emission ETV
vector 20 RSUExampleScenario.node[4].veinsmobility posx ETV
vector 21 RSUExampleScenario.node[4].veinsmobility posy ETV
vector 22 RSUExampleScenario.node[4].veinsmobility speed ETV
vector 23 RSUExampleScenario.node[4].veinsmobility acceleration ETV
vector 24 RSUExampleScenario.node[4].veinsmobility co2emission ETV
vector 25 RSUExampleScenario.node[5].veinsmobility posx ETV
vector 26 RSUExampleScenario.node[5].veinsmobility posy ETV
vector 27 RSUExampleScenario.node[5].veinsmobility speed ETV
vector 28 RSUExampleScenario.node[5].veinsmobility acceleration ETV
vector 29 RSUExampleScenario.node[5].veinsmobility co2emission ETV
vector 30 RSUExampleScenario.node[6].veinsmobility posx ETV
vector 31 RSUExampleScenario.node[6].veinsmobility posy ETV
vector 32 RSUExampleScenario.node[6].veinsmobility speed ETV
vector 33 RSUExampleScenario.node[6].veinsmobility acceleration ETV
vector 34 RSUExampleScenario.node[6].veinsmobility co2emission ETV
vector 35 RSUExampleScenario.node[7].veinsmobility posx ETV
vector 36 RSUExampleScenario.node[7].veinsmobility posy ETV
vector 37 RSUExampleScenario.node[7].veinsmobility speed ETV
vector 38 RSUExampleScenario.node[7].veinsmobility acceleration ETV
vector 39 RSUExampleScenario.node[7].veinsmobility co2emission ETV
vector 40 RSUExampleScenario.node[8].veinsmobility posx ETV
vector 41 RSUExampleScenario.node[8].veinsmobility posy ETV
vector 42 RSUExampleScenario.node[8].veinsmobility speed ETV
vector 43 RSUExampleScenario.node[8].veinsmobility acceleration ETV
vector 44 RSUExampleScenario.node[8].veinsmobility co2emission ETV
vector 45 RSUExampleScenario.node[9].veinsmobility posx ETV
vector 46 RSUExampleScenario.node[9].veinsmobility posy ETV
vector 47 RSUExampleScenario.node[9].veinsmobility speed ETV
vector 48 RSUExampleScenario.node[9].veinsmobility acceleration ETV
vector 49 RSUExampleScenario.node[9].veinsmobility co2emission ETV
vector 50 RSUExampleScenario.node[10].veinsmobility posx ETV
vector 51 RSUExampleScenario.node[10].veinsmobility posy ETV
vector 52 RSUExampleScenario.node[10].veinsmobility speed ETV
vector 53 RSUExampleScenario.node[10].veinsmobility acceleration ETV
vector 54 RSUExampleScenario.node[10].veinsmobility co2emission ETV
vector 55 RSUExampleScenario.node[11].veinsmobility posx ETV
vector 56 RSUExampleScenario.node[11].veinsmobility posy ETV
vector 57 RSUExampleScenario.node[11].veinsmobility speed ETV
vector 58 RSUExampleScenario.node[11].veinsmobility acceleration ETV
vector 59 RSUExampleScenario.node[11].veinsmobility co2emission ETV
vector 60 RSUExampleScenario.node[12].veinsmobility posx ETV
vector 61 RSUExampleScenario.node[12].veinsmobility posy ETV
vector 62 RSUExampleScenario.node[12].veinsmobility speed ETV
vector 63 RSUExampleScenario.node[12].veinsmobility acceleration ETV
vector 64 RSUExampleScenario.node[12].veinsmobility co2emission ETV
vector 65 RSUExampleScenario.node[13].veinsmobility posx ETV
vector 66 RSUExampleScenario.node[13].veinsmobility posy ETV
vector 67 RSUExampleScenario.node[13].veinsmobility speed ETV
vector 68 RSUExampleScenario.node[13].veinsmobility acceleration ETV
vector 69 RSUExampleScenario.node[13].veinsmobility co2emission ETV
vector 70 RSUExampleScenario.node[14].veinsmobility posx ETV
vector 71 RSUExampleScenario.node[14].veinsmobility posy ETV
vector 72 RSUExampleScenario.node[14].veinsmobility speed ETV
vector 73 RSUExampleScenario.node[14].veinsmobility acceleration ETV
vector 74 RSUExampleScenario.node[14].veinsmobility co2emission ETV
vector 75 RSUExampleScenario.node[15].veinsmobility posx ETV
vector 76 RSUExampleScenario.node[15].veinsmobility posy ETV
vector 77 RSUExampleScenario.node[15].veinsmobility speed ETV
vector 78 RSUExampleScenario.node[15].veinsmobility acceleration ETV
vector 79 RSUExampleScenario.node[15].veinsmobility co2emission ETV
vector 80 RSUExampleScenario.node[16].veinsmobility posx ETV
vector 81 RSUExampleScenario.node[16].veinsmobility posy ETV
vector 82 RSUExampleScenario.node[16].veinsmobility speed ETV
vector 83 RSUExampleScenario.node[16].veinsmobility acceleration ETV
vector 84 RSUExampleScenario.node[16].veinsmobility co2emission ETV
vector 85 RSUExampleScenario.node[17].veinsmobility posx ETV
vector 86 RSUExampleScenario.node[17].veinsmobility posy ETV
vector 87 RSUExampleScenario.node[17].veinsmobility speed ETV
vector 88 RSUExampleScenario.node[17].veinsmobility acceleration ETV
vector 89 RSUExampleScenario.node[17].veinsmobility co2emission ETV
vector 90 RSUExampleScenario.node[18].veinsmobility posx ETV
vector 91 RSUExampleScenario.node[18].veinsmobility posy ETV
vector 92 RSUExampleScenario.node[18].veinsmobility speed ETV
vector 93 RSUExampleScenario.node[18].veinsmobility acceleration ETV
vector 94 RSUExampleScenario.node[18].veinsmobility co2emission ETV
vector 95 RSUExampleScenario.node[19].veinsmobility posx ETV
vector 96 RSUExampleScenario.node[19].veinsmobility posy ETV
vector 97 RSUExampleScenario.node[19].veinsmobility speed ETV
vector 98 RSUExampleScenario.node[19].veinsmobility acceleration ETV
vector 99 RSUExampleScenario.node[19].veinsmobility co2emission ETV
vector 100 RSUExampleScenario.node[20].veinsmobility posx ETV
vector 101 RSUExampleScenario.node[20].veinsmobility posy ETV
vector 102 RSUExampleScenario.node[20].veinsmobility speed ETV
vector 103 RSUExampleScenario.node[20].veinsmobility acceleration ETV
vector 104 RSUExampleScenario.node[20].veinsmobility co2emission ETV
vector 105 RSUExampleScenario.node[21].veinsmobility posx ETV
vector 106 RSUExampleScenario.node[21].veinsmobility posy ETV
vector 107 RSUExampleScenario.node[21].veinsmobility speed ETV
vector 108 RSUExampleScenario.node[21].veinsmobility acceleration ETV
vector 109 RSUExampleScenario.node[21].veinsmobility co2emission ETV
vector 110 RSUExampleScenario.node[22].veinsmobility posx ETV
vector 111 RSUExampleScenario.node[22].veinsmobility posy ETV
vector 112 RSUExampleScenario.node[22].veinsmobility speed ETV
vector 113 RSUExampleScenario.node[22].veinsmobility acceleration ETV
vector 114 RSUExampleScenario.node[22].veinsmobility co2emission ETV
vector 115 RSUExampleScenario.node[23].veinsmobility posx ETV
vector 116 RSUExampleScenario.node[23].veinsmobility posy ETV
vector 117 RSUExampleScenario.node[23].veinsmobility speed ETV
vector 118 RSUExampleScenario.node[23].veinsmobility acceleration ETV
vector 119 RSUExampleScenario.node[23].veinsmobility co2emission ETV
vector 120 RSUExampleScenario.node[24].veinsmobility posx ETV
vector 121 RSUExampleScenario.node[24].veinsmobility posy ETV
vector 122 RSUExampleScenario.node[24].veinsmobility speed ETV
vector 123 RSUExampleScenario.node[24].veinsmobility acceleration ETV
vector 124 RSUExampleScenario.node[24].veinsmobility co2emission ETV
vector 125 RSUExampleScenario.node[25].veinsmobility posx ETV
vector 126 RSUExampleScenario.node[25].veinsmobility posy ETV
vector 127 RSUExampleScenario.node[25].veinsmobility speed ETV
vector 128 RSUExampleScenario.node[25].veinsmobility acceleration ETV
vector 129 RSUExampleScenario.node[25].veinsmobility co2emission ETV
vector 130 RSUExampleScenario.node[26].veinsmobility posx ETV
vector 131 RSUExampleScenario.node[26].veinsmobility posy ETV
vector 132 RSUExampleScenario.node[26].veinsmobility speed ETV
vector 133 RSUExampleScenario.node[26].veinsmobility acceleration ETV
vector 134 RSUExampleScenario.node[26].veinsmobility co2emission ETV
vector 135 RSUExampleScenario.node[27].veinsmobility posx ETV
vector 136 RSUExampleScenario.node[27].veinsmobility posy ETV
vector 137 RSUExampleScenario.node[27].veinsmobility speed ETV
vector 138 RSUExampleScenario.node[27].veinsmobility acceleration ETV
vector 139 RSUExampleScenario.node[27].veinsmobility co2emission ETV
vector 140 RSUExampleScenario.node[28].veinsmobility posx ETV
vector 141 RSUExampleScenario.node[28].veinsmobility posy ETV
vector 142 RSUExampleScenario.node[28].veinsmobility speed ETV
vector 143 RSUExampleScenario.node[28].veinsmobility acceleration ETV
vector 144 RSUExampleScenario.node[28].veinsmobility co2emission ETV
vector 145 RSUExampleScenario.node[29].veinsmobility posx ETV
vector 146 RSUExampleScenario.node[29].veinsmobility posy ETV
vector 147 RSUExampleScenario.node[29].veinsmobility speed ETV
vector 148 RSUExampleScenario.node[29].veinsmobility acceleration ETV
vector 149 RSUExampleScenario.node[29].veinsmobility co2emission ETV
vector 150 RSUExampleScenario.node[30].veinsmobility posx ETV
vector 151 RSUExampleScenario.node[30].veinsmobility posy ETV
vector 152 RSUExampleScenario.node[30].veinsmobility speed ETV
vector 153 RSUExampleScenario.node[30].veinsmobility acceleration ETV
vector 154 RSUExampleScenario.node[30].veinsmobility co2emission ETV
vector 155 RSUExampleScenario.node[31].veinsmobility posx ETV
vector 156 RSUExampleScenario.node[31].veinsmobility posy ETV
vector 157 RSUExampleScenario.node[31].veinsmobility speed ETV
vector 158 RSUExampleScenario.node[31].veinsmobility acceleration ETV
vector 159 RSUExampleScenario.node[31].veinsmobility co2emission ETV
vector 160 RSUExampleScenario.node[32].veinsmobility posx ETV
vector 161 RSUExampleScenario.node[32].veinsmobility posy ETV
vector 162 RSUExampleScenario.node[32].veinsmobility speed ETV
vector 163 RSUExampleScenario.node[32].veinsmobility acceleration ETV
vector 164 RSUExampleScenario.node[32].veinsmobility co2emission ETV
vector 165 RSUExampleScenario.node[33].veinsmobility posx ETV
vector 166 RSUExampleScenario.node[33].veinsmobility posy ETV
vector 167 RSUExampleScenario.node[33].veinsmobility speed ETV
vector 168 RSUExampleScenario.node[33].veinsmobility acceleration ETV
vector 169 RSUExampleScenario.node[33].veinsmobility co2emission ETV
vector 170 RSUExampleScenario.node[34].veinsmobility posx ETV
vector 171 RSUExampleScenario.node[34].veinsmobility posy ETV
vector 172 RSUExampleScenario.node[34].veinsmobility speed ETV
vector 173 RSUExampleScenario.node[34].veinsmobility acceleration ETV
vector 174 RSUExampleScenario.node[34].veinsmobility co2emission ETV
vector 175 RSUExampleScenario.node[35].veinsmobility posx ETV
vector 176 RSUExampleScenario.node[35].veinsmobility posy ETV
vector 177 RSUExampleScenario.node[35].veinsmobility speed ETV
vector 178 RSUExampleScenario.node[35].veinsmobility acceleration ETV
vector 179 RSUExampleScenario.node[35].veinsmobility co2emission ETV
vector 180 RSUExampleScenario.node[36].veinsmobility posx ETV
vector 181 RSUExampleScenario.node[36].veinsmobility posy ETV
vector 182 RSUExampleScenario.node[36].veinsmobility speed ETV
vector 183 RSUExampleScenario.node[36].veinsmobility acceleration ETV
vector 184 RSUExampleScenario.node[36].veinsmobility co2emission ETV
vector 185 RSUExampleScenario.node[37].veinsmobility posx ETV
vector 186 RSUExampleScenario.node[37].veinsmobility posy ETV
vector 187 RSUExampleScenario.node[37].veinsmobility speed ETV
vector 188 RSUExampleScenario.node[37].veinsmobility acceleration ETV
vector 189 RSUExampleScenario.node[37].veinsmobility co2emission ETV
vector 190 RSUExampleScenario.node[38].veinsmobility posx ETV
vector 191 RSUExampleScenario.node[38].veinsmobility posy ETV
vector 192 RSUExampleScenario.node[38].veinsmobility speed ETV
vector 193 RSUExampleScenario.node[38].veinsmobility acceleration ETV
vector 194 RSUExampleScenario.node[38].veinsmobility co2emission ETV
vector 195 RSUExampleScenario.node[39].veinsmobility posx ETV
vector 196 RSUExampleScenario.node[39].veinsmobility posy ETV
vector 197 RSUExampleScenario.node[39].veinsmobility speed ETV
vector 198 RSUExampleScenario.node[39].veinsmobility acceleration ETV
vector 199 RSUExampleScenario.node[39].veinsmobility co2emission ETV
vector 200 RSUExampleScenario.node[40].veinsmobility posx ETV
vector 201 RSUExampleScenario.node[40].veinsmobility posy ETV
vector 202 RSUExampleScenario.node[40].veinsmobility speed ETV
vector 203 RSUExampleScenario.node[40].veinsmobility acceleration ETV
vector 204 RSUExampleScenario.node[40].veinsmobility co2emission ETV
vector 205 RSUExampleScenario.node[41].veinsmobility posx ETV
vector 206 RSUExampleScenario.node[41].veinsmobility posy ETV
vector 207 RSUExampleScenario.node[41].veinsmobility speed ETV
vector 208 RSUExampleScenario.node[41].veinsmobility acceleration ETV
vector 209 RSUExampleScenario.node[41].veinsmobility co2emission ETV
vector 210 RSUExampleScenario.node[42].veinsmobility posx ETV
vector 211 RSUExampleScenario.node[42].veinsmobility posy ETV
vector 212 RSUExampleScenario.node[42].veinsmobility speed ETV
vector 213 RSUExampleScenario.node[42].veinsmobility acceleration ETV
vector 214 RSUExampleScenario.node[42].veinsmobility co2emission ETV
vector 215 RSUExampleScenario.node[43].veinsmobility posx ETV
vector 216 RSUExampleScenario.node[43].veinsmobility posy ETV
vector 217 RSUExampleScenario.node[43].veinsmobility speed ETV
vector 218 RSUExampleScenario.node[43].veinsmobility acceleration ETV
vector 219 RSUExampleScenario.node[43].veinsmobility co2emission ETV
vector 220 RSUExampleScenario.node[44].veinsmobility posx ETV
vector 221 RSUExampleScenario.node[44].veinsmobility posy ETV
vector 222 RSUExampleScenario.node[44].veinsmobility speed ETV
vector 223 RSUExampleScenario.node[44].veinsmobility acceleration ETV
vector 224 RSUExampleScenario.node[44].veinsmobility co2emission ETV
vector 225 RSUExampleScenario.node[45].veinsmobility posx ETV
vector 226 RSUExampleScenario.node[45].veinsmobility posy ETV
vector 227 RSUExampleScenario.node[45].veinsmobility speed ETV
vector 228 RSUExampleScenario.node[45].veinsmobility acceleration ETV
vector 229 RSUExampleScenario.node[45].veinsmobility co2emission ETV
vector 230 RSUExampleScenario.node[46].veinsmobility posx ETV
vector 231 RSUExampleScenario.node[46].veinsmobility posy ETV
vector 232 RSUExampleScenario.node[46].veinsmobility speed ETV
vector 233 RSUExampleScenario.node[46].veinsmobility acceleration ETV
vector 234 RSUExampleScenario.node[46].veinsmobility co2emission ETV
vector 235 RSUExampleScenario.node[47].veinsmobility posx ETV
vector 236 RSUExampleScenario.node[47].veinsmobility posy ETV
vector 237 RSUExampleScenario.node[47].veinsmobility speed ETV
vector 238 RSUExampleScenario.node[47].veinsmobility acceleration ETV
vector 239 RSUExampleScenario.node[47].veinsmobility co2emission ETV
vector 240 RSUExampleScenario.node[48].veinsmobility posx ETV
vector 241 RSUExampleScenario.node[48].veinsmobility posy ETV
vector 242 RSUExampleScenario.node[48].veinsmobility speed ETV
vector 243 RSUExampleScenario.node[48].veinsmobility acceleration ETV
vector 244 RSUExampleScenario.node[48].veinsmobility co2emission ETV
vector 245 RSUExampleScenario.node[49].veinsmobility posx ETV
vector 246 RSUExampleScenario.node[49].veinsmobility posy ETV
vector 247 RSUExampleScenario.node[49].veinsmobility speed ETV
vector 248 RSUExampleScenario.node[49].veinsmobility acceleration ETV
vector 249 RSUExampleScenario.node[49].veinsmobility co2emission ETV
vector 250 RSUExampleScenario.node[50].veinsmobility posx ETV
vector 251 RSUExampleScenario.node[50].veinsmobility posy ETV
vector 252 RSUExampleScenario.node[50].veinsmobility speed ETV
vector 253 RSUExampleScenario.node[50].veinsmobility acceleration ETV
vector 254 RSUExampleScenario.node[50].veinsmobility co2emission ETV
vector 255 RSUExampleScenario.node[51].veinsmobility posx ETV
vector 256 RSUExampleScenario.node[51].veinsmobility posy ETV
vector 257 RSUExampleScenario.node[51].veinsmobility speed ETV
vector 258 RSUExampleScenario.node[51].veinsmobility acceleration ETV
vector 259 RSUExampleScenario.node[51].veinsmobility co2emission ETV
vector 260 RSUExampleScenario.node[52].veinsmobility posx ETV
vector 261 RSUExampleScenario.node[52].veinsmobility posy ETV
vector 262 RSUExampleScenario.node[52].veinsmobility speed ETV
vector 263 RSUExampleScenario.node[52].veinsmobility acceleration ETV
vector 264 RSUExampleScenario.node[52].veinsmobility co2emission ETV
vector 265 RSUExampleScenario.node[53].veinsmobility posx ETV
vector 266 RSUExampleScenario.node[53].veinsmobility posy ETV
vector 267 RSUExampleScenario.node[53].veinsmobility speed ETV
vector 268 RSUExampleScenario.node[53].veinsmobility acceleration ETV
vector 269 RSUExampleScenario.node[53].veinsmobility co2emission ETV
vector 270 RSUExampleScenario.node[54].veinsmobility posx ETV
vector 271 RSUExampleScenario.node[54].veinsmobility posy ETV
vector 272 RSUExampleScenario.node[54].veinsmobility speed ETV
vector 273 RSUExampleScenario.node[54].veinsmobility acceleration ETV
vector 274 RSUExampleScenario.node[54].veinsmobility co2emission ETV
vector 275 RSUExampleScenario.node[55].veinsmobility posx ETV
vector 276 RSUExampleScenario.node[55].veinsmobility posy ETV
vector 277 RSUExampleScenario.node[55].veinsmobility speed ETV
vector 278 RSUExampleScenario.node[55].veinsmobility acceleration ETV
vector 279 RSUExampleScenario.node[55].veinsmobility co2emission ETV
vector 280 RSUExampleScenario.node[56].veinsmobility posx ETV
vector 281 RSUExampleScenario.node[56].veinsmobility posy ETV
vector 282 RSUExampleScenario.node[56].veinsmobility speed ETV
vector 283 RSUExampleScenario.node[56].veinsmobility acceleration ETV
vector 284 RSUExampleScenario.node[56].veinsmobility co2emission ETV
vector 285 RSUExampleScenario.node[57].veinsmobility posx ETV
vector 286 RSUExampleScenario.node[57].veinsmobility posy ETV
vector 287 RSUExampleScenario.node[57].veinsmobility speed ETV
vector 288 RSUExampleScenario.node[57].veinsmobility acceleration ETV
vector 289 RSUExampleScenario.node[57].veinsmobility co2emission ETV
vector 290 RSUExampleScenario.node[58].veinsmobility posx ETV
vector 291 RSUExampleScenario.node[58].veinsmobility posy ETV
vector 292 RSUExampleScenario.node[58].veinsmobility speed ETV
vector 293 RSUExampleScenario.node[58].veinsmobility acceleration ETV
vector 294 RSUExampleScenario.node[58].veinsmobility co2emission ETV
vector 295 RSUExampleScenario.node[59].veinsmobility posx ETV
vector 296 RSUExampleScenario.node[59].veinsmobility posy ETV
vector 297 RSUExampleScenario.node[59].veinsmobility speed ETV
vector 298 RSUExampleScenario.node[59].veinsmobility acceleration ETV
vector 299 RSUExampleScenario.node[59].veinsmobility co2emission ETV
vector 300 RSUExampleScenario.node[60].veinsmobility posx ETV
vector 301 RSUExampleScenario.node[60].veinsmobility posy ETV
vector 302 RSUExampleScenario.node[60].veinsmobility speed ETV
vector 303 RSUExampleScenario.node[60].veinsmobility acceleration ETV
vector 304 RSUExampleScenario.node[60].veinsmobility co2emission ETV
vector 305 RSUExampleScenario.node[61].veinsmobility posx ETV
vector 306 RSUExampleScenario.node[61].veinsmobility posy ETV
vector 307 RSUExampleScenario.node[61].veinsmobility speed ETV
vector 308 RSUExampleScenario.node[61].veinsmobility acceleration ETV
vector 309 RSUExampleScenario.node[61].veinsmobility co2emission ETV
vector 310 RSUExampleScenario.node[62].veinsmobility posx ETV
vector 311 RSUExampleScenario.node[62].veinsmobility posy ETV
vector 312 RSUExampleScenario.node[62].veinsmobility speed ETV
vector 313 RSUExampleScenario.node[62].veinsmobility acceleration ETV
vector 314 RSUExampleScenario.node[62].veinsmobility co2emission ETV
vector 315 RSUExampleScenario.node[63].veinsmobility posx ETV
vector 316 RSUExampleScenario.node[63].veinsmobility posy ETV
vector 317 RSUExampleScenario.node[63].veinsmobility speed ETV
vector 318 RSUExampleScenario.node[63].veinsmobility acceleration ETV
vector 319 RSUExampleScenario.node[63].veinsmobility co2emission ETV
vector 320 RSUExampleScenario.node[64].veinsmobility posx ETV
vector 321 RSUExampleScenario.node[64].veinsmobility posy ETV
vector 322 RSUExampleScenario.node[64].veinsmobility speed ETV
vector 323 RSUExampleScenario.node[64].veinsmobility acceleration ETV
vector 324 RSUExampleScenario.node[64].veinsmobility co2emission ETV
vector 325 RSUExampleScenario.node[65].veinsmobility posx ETV
vector 326 RSUExampleScenario.node[65].veinsmobility posy ETV
vector 327 RSUExampleScenario.node[65].veinsmobility speed ETV
vector 328 RSUExampleScenario.node[65].veinsmobility acceleration ETV
vector 329 RSUExampleScenario.node[65].veinsmobility co2emission ETV
vector 330 RSUExampleScenario.node[66].veinsmobility posx ETV
vector 331 RSUExampleScenario.node[66].veinsmobility posy ETV
vector 332 RSUExampleScenario.node[66].veinsmobility speed ETV
4	102	3	3.9690439751639
4	143	4	4.8734986088453
4	203	5	6.2068327255978
4	264	6	7.2118621755177
4	325	7	8.2287933875323
4	405	8	3.0242689444712
4	486	9	2.410214010884
4	567	10	1.8042481683123
4	667	11	2.2766031729043
4	768	12	1.9910577970912
4	869	13	1.9816353748441
4	989	14	2.0006543718409
4	1110	15	2.0156733927738
4	1231	16	1.7275773004983
4	1371	17	2.3491339177603
4	1512	18	0.973
4	1653	19	0.973
4	1813	20	0.973
4	1974	21	0.973
4	2135	22	2.9202656039732
4	2315	23	5.1829022112917
4	2496	24	5.8409555110412
4	2677	25	7.0478875101329
4	2877	26	7.1923395024802
4	3078	27	5.7035699225295
4	3279	28	1.8542576609033
4	3499	29	2.071579633465
4	3720	30	2.033070591514
4	3941	31	1.9708367886165
4	4181	32	1.958947003716
4	4422	33	2.1937519865362
4	4663	34	2.0148851452489
4	4923	35	1.9494556216079
4	5184	36	2.1233313202265
4	5445	37	2.0980065652139
4	5725	38	2.0564960049267
4	6006	39	1.8849385975403
4	6287	40	2.0135217775437
4	6587	41	2.1970455854856
4	6888	42	2.0114927076469
4	7189	43	1.8022364453996
4	7509	44	2.4028055099799
4	7830	45	1.7398103572212
4	8151	46	2.0704874226364
4	8491	47	1.9551479348163
4	8832	48	2.0622988460067
4	9173	49	2.1436920788903
4	9533	50	1.9709420801269
4	9894	51	2.2404713242546
4	10255	52	1.6811177558643
4	10635	53	2.1687186093148
4	11016	54	2.068228125812
4	11397	55	2.1189750795911
4	11797	56	1.9158044765909
4	12198	57	2.0646522515523
4	12599	58	1.8795950099662
4	13019	59	2.40991582857
4	13440	60	2.060217812421
4	13861	61	1.6101508281289
4	14301	62	2.0174438220444
4	14742	63	2.2227433300183
4	15183	64	2.1956409213675
4	15643	65	1.7698327313004
4	16104	66	1.9334542286895
4	16565	67	2.2331933794582
4	17045	68	1.8269584545957
4	17526	69	2.4094828911751
4	18007	70	1.8423934072781
4	18507	71	2.1030929112895
4	19008	72	1.9463691603324
4	19509	73	0.973
4	20030	74	0.973
4	20551	75	0.973
4	21072	76	0.973
4	21612	77	0.973
4	22153	78	0.973
4	22694	79	0.973
4	23254	80	0.973
4	23815	81	0.973
4	24376	82	0.973
4	24956	83	0.973
4	25537	84	0.973
4	26118	85	0.973
4	26837	86	0.973
4	30507	87	0.973
4	36707	88	0.973
4	39749	89	0.973
4	45202	90	0.973
4	46470	91	0.973
4	48465	92	0.973
4	49252	93	0.973
4	50316	94	0.973
4	50976	95	0.973
4	51637	96	0.973
4	52298	97	0.973
4	52978	98	0.973
4	53659	99	0.973
4	54340	100	0.973
4	55040	101	0.973
4	55741	102	0.973
4	56442	103	0.973
4	57163	104	0.973
4	57884	105	0.973
4	58605	106	0.973
4	59345	107	0.973
4	60086	108	0.973
4	60827	109	0.973
4	61587	110	0.973
4	62348	111	0.973
4	63109	112	0.973
4	63889	113	0.973
4	64670	114	0.973
4	65451	115	0.973
4	66251	116	0.973
4	67052	117	0.973
4	67853	118	0.973
4	68673	119	0.973
4	69494	120	0.973
4	70315	121	0.973
4	71155	122	0.973
4	71996	123	0.973
4	72838	124	2.5316330721409
4	73698	125	3.3088600252674
4	74559	126	1.4716786611616
4	76919	127	5.1743780037901
4	80289	128	5.014299851029
4	83995	129	6.3968900574393
4	85081	130	7.808621277937
4	86146	131	7.3712753026615
4	87047	132	2.3673853427263
4	87948	133	1.8736469224468
4	88869	134	2.0890641969687
4	89790	135	1.7847118530456
4	90711	136	2.424471041835
4	91651	137	1.6026273215021
4	92592	138	2.1844508262857
4	93533	139	2.1329165940934
4	94493	140	1.9202811456913
4	95454	141	2.2570252135652
4	96415	142	1.7092124494953
4	97395	143	2.2001887307963
4	98376	144	2.066390382259
4	99357	145	2.2144000026955
4	100357	146	2.0238570991803
4	101358	147	1.6169631889517
4	102359	148	2.3109593499213
4	103379	149	1.7893718415076
4	104400	150	2.2787983736996
4	105421	151	1.8406567093162
4	106461	152	2.2344425784029
4	107502	153	1.9315664771292
4	108544	154	2.0584510291845
4	109604	155	2.0003032874626
4	110665	156	2.2468034744443
4	111726	157	2.0028558603956
4	112806	158	1.7209579306654
4	113887	159	2.0580497434693
4	114968	160	2.0638924916582
4	116068	161	2.2562171353258
4	117169	162	1.848425684793
4	118270	163	1.9519878268263
4	119391	164	2.3014095817943
4	120512	165	1.7153104220625
4	121633	166	2.2847783600702
4	122773	167	1.7852646870096
4	123914	168	2.2743994637888
4	125055	169	1.8614928595242
4	126215	170	2.3038818863713
4	127376	171	1.7490787370998
4	128537	172	2.3098193087229
4	129717	173	1.8301868428965
4	130898	174	1.9392561410404
4	132079	175	2.3484511842005
4	133279	176	1.6735950913231
4	134480	177	2.2194127477174
4	135681	178	1.968353660952
4	136901	179	1.8894376534924
4	138122	180	2.0591648043872
4	139343	181	2.4083231291615
4	140583	182	1.8846644456448
4	141824	183	2.0645024571429
4	143066	184	1.9142910272826
4	144326	185	2.1908256330978
4	145587	186	1.8420819003082
4	146848	187	2.0085786700786
4	148128	188	2.0064858104365
4	149409	189	1.9561424835442
4	150690	190	2.0100053489025
4	151990	191	2.3086832512815
4	153291	192	1.7383196097801
4	154592	193	2.1527532510822
4	155913	194	2.0916121140371
4	157234	195	1.9814255239671
4	158555	196	2.1464619254623
4	159895	197	1.869129501393
4	161236	198	2.2179198215622
4	162577	199	2.1069552891904
4	163937	200	2.0393339996775
3	102	3	1.8350836683181
3	143	4	1.8271086537745
3	203	5	1.9700068054721
3	264	6	1.9440954117314
3	325	7	1.9251633647294
3	405	8	0.3043542271355
3	486	9	0.11476667602547
3	567	10	-0.064753184660804
3	667	11	0.074470334358047
3	768	12	-0.010534379172604
3	869	13	-0.012970053050667
3	989	14	-0.0070667944545857
3	1110	15	-0.0024941215664143
3	1231	16	-0.086695689375047
3	1371	17	0.096991665165405
3	1512	18	-1.1627897896615
3	1653	19	-3.2370594858455
3	1813	20	-2.9603488400973
3	1974	21	-2.5337033977468
3	2135	22	1.2329252061435
3	2315	23	2.094907346114
3	2496	24	1.9011793446587
3	2677	25	1.9599004447064
3	2877	26	1.6991365455417
3	3078	27	1.0915354850417
3	3279	28	-0.052010718395469
3	3499	29	0.01248028835049
3	3720	30	0.00096433614380587
3	3941	31	-0.017099415783305
3	4181	32	-0.020069704249035
3	4422	33	0.048505362290889
3	4663	34	-0.0046603607200097
3	4923	35	-0.023492567082867
3	5184	36	0.027538535709027
3	5445	37	0.01937479801709
3	5725	38	0.0068101624515826
3	6006	39	-0.043050197220873
3	6287	40	-0.0045451738196416
3	6587	41	0.048586284592748
3	6888	42	-0.0064147925446747
3	7189	43	-0.06697850137949
3	7509	44	0.10845056370599
3	7830	45	-0.086184235455002
3	8151	46	0.012157847334166
3	8491	47	-0.02162330031395
3	8832	48	0.01007445028983
3	9173	49	0.033280818574131
3	9533	50	-0.017653799874243
3	9894	51	0.060609251707794
3	10255	52	-0.10310439425055
3	10635	53	0.04136053440161
3	11016	54	0.011047466655729
3	11397	55	0.025352031746879
3	11797	56	-0.034127474795095
3	12198	57	0.0099455157318147
3	12599	58	-0.043998417782131
3	13019	59	0.11027641468448
3	13440	60	0.0063770599314008
3	13861	61	-0.12437126584118
3	14301	62	-0.002486674915998
3	14742	63	0.056955466950312
3	15183	64	0.047281749872491
3	15643	65	-0.077224377754611
3	16104	66	-0.027593536539934
3	16565	67	0.059983630857896
3	17045	68	-0.05946393133374
3	17526	69	0.11053127134917
3	18007	70	-0.056278499371837
3	18507	71	0.020738100388552
3	19008	72	-0.02517115517985
3	19509	73	-1.6366440532162
3	20030	74	-4.5
3	20551	75	-4.5
3	21072	76	-3.2848537642377
3	21612	77	0
3	22153	78	0
3	22694	79	0
3	23254	80	0
3	23815	81	0
3	24376	82	0
3	24956	83	0
3	25537	84	0
3	26118	85	0
3	26837	86	0
3	30507	87	0
3	36707	88	0
3	39749	89	0
3	45202	90	0
3	46470	91	0
3	48465	92	0
3	49252	93	0
3	50316	94	0
3	50976	95	0
3	51637	96	0
3	52298	97	0
3	52978	98	0
3	53659	99	0
3	54340	100	0
3	55040	101	0
3	55741	102	0
3	56442	103	0
3	57163	104	0
3	57884	105	0
3	58605	106	0
3	59345	107	0
3	60086	108	0
3	60827	109	0
3	61587	110	0
3	62348	111	0
3	63109	112	0
3	63889	113	0
3	64670	114	0
3	65451	115	0
3	66251	116	0
3	67052	117	0
3	67853	118	0
3	68673	119	0
3	69494	120	0
3	70315	121	0
3	71155	122	0
3	71996	123	0
3	72838	124	2.3297445651014
3	73698	125	1.9331664239709
3	74559	126	0.13376009473571
3	76919	127	2.3007281390787
3	80289	128	1.7016358621838
3	83995	129	1.891119004183
3	85081	130	2.0029415552062
3	86146	131	1.5963933747577
3	87047	132	0.097846636637113
3	87948	133	-0.047345833701547
3	88869	134	0.016261815349571
3	89790	135	-0.072407276278827
3	90711	136	0.1143618238857
3	91651	137	-0.12656636003871
3	92592	138	0.045922909667716
3	93533	139	0.029595267204567
3	94493	140	-0.032748176157474
3	95454	141	0.065372841688804
3	96415	142	-0.09499355140375
3	97395	143	0.050028323524167
3	98376	144	0.0098797714314429
3	99357	145	0.05213887388585
3	100357	146	-0.0042207782180039
3	101358	147	-0.12225061865523
3	102359	148	0.08236208234448
3	103379	149	-0.070962024249601
3	104400	150	0.072734668047632
3	105421	151	-0.056071815898177
3	106461	152	0.059429106807803
3	107502	153	-0.029769370523281
3	108544	154	0.0077902077697214
3	109604	155	-0.0092483466956761
3	110665	156	0.062029640041292
3	111726	157	-0.010033515868709
3	112806	158	-0.091538168769329
3	113887	159	0.0089064160035921
3	114968	160	0.010329422608484
3	116068	161	0.065415071730968
3	117169	162	-0.054257343441714
3	118270	163	-0.022728252974339
3	119391	164	0.078772114845924
3	120512	165	-0.093068624779116
3	121633	166	0.074496628276538
3	122773	167	-0.072214205316268
3	123914	168	0.07143811681075
3	125055	169	-0.05000507550314
3	126215	170	0.079152790252119
3	127376	171	-0.083447758869733
3	128537	172	0.081003105540294
3	129717	173	-0.059789288458415
3	130898	174	-0.026524975288194
3	132079	175	0.092249054922723
3	133279	176	-0.10555711968802
3	134480	177	0.055679783248342
3	135681	178	-0.018528794979211
3	136901	179	-0.040933821906801
3	138122	180	0.0095189137756826
3	139343	181	0.109635523092
3	140583	182	-0.044399497108534
3	141824	183	0.0088107110303834
3	143066	184	-0.034862719411031
3	144326	185	0.045980718550272
3	145587	186	-0.056110908724367
3	146848	187	-0.0062783119664527
3	148128	188	-0.0067022539116444
3	149409	189	-0.021118161173071
3	150690	190	-0.0048720179195527
3	151990	191	0.081474161630032
3	153291	192	-0.085999218984508
3	154592	193	0.036745522869751
3	155913	194	0.017937543757725
3	157234	195	-0.014466304362285
3	158555	196	0.033649388996418
3	159895	197	-0.047582250081467
3	161236	198	0.054666622818912
3	162577	199	0.020998626307119
3	163937	200	0.00089298073435273
2	61	2	3.9572089270348
2	102	3	5.7922925953529
2	143	4	7.6194012491274
2	203	5	9.5894080545995
2	264	6	11.533503466331
2	325	7	13.45866683106
2	405	8	13.763021058196
2	486	9	13.877787734221
2	567	10	13.81303454956
2	667	11	13.887504883918
2	768	12	13.876970504746
2	869	13	13.864000451695
2	989	14	13.856933657241
2	1110	15	13.854439535674
2	1231	16	13.767743846299
2	1371	17	13.864735511465
2	1512	18	12.701945721803
2	1653	19	9.4648862359575
2	1813	20	6.5045373958602
2	1974	21	3.9708339981135
2	2135	22	5.203759204257
2	2315	23	7.298666550371
2	2496	24	9.1998458950297
2	2677	25	11.159746339736
2	2877	26	12.858882885278
2	3078	27	13.95041837032
2	3279	28	13.898407651924
2	3499	29	13.910887940275
2	3720	30	13.911852276418
2	3941	31	13.894752860635
2	4181	32	13.874683156386
2	4422	33	13.923188518677
2	4663	34	13.918528157957
2	4923	35	13.895035590874
2	5184	36	13.922574126583
2	5445	37	13.9419489246
2	5725	38	13.948759087052
2	6006	39	13.905708889831
2	6287	40	13.901163716011
2	6587	41	13.949750000604
2	6888	42	13.943335208059
2	7189	43	13.87635670668
2	7509	44	13.984807270386
2	7830	45	13.898623034931
2	8151	46	13.910780882265
2	8491	47	13.889157581951
2	8832	48	13.899232032241
2	9173	49	13.932512850815
2	9533	50	13.914859050941
2	9894	51	13.975468302649
2	10255	52	13.872363908398
2	10635	53	13.9137244428
2	11016	54	13.924771909455
2	11397	55	13.950123941202
2	11797	56	13.915996466407
2	12198	57	13.925941982139
2	12599	58	13.881943564357
2	13019	59	13.992219979041
2	13440	60	13.998597038973
2	13861	61	13.874225773131
2	14301	62	13.871739098215
2	14742	63	13.928694565166
2	15183	64	13.975976315038
2	15643	65	13.898751937284
2	16104	66	13.871158400744
2	16565	67	13.931142031602
2	17045	68	13.871678100268
2	17526	69	13.982209371617
2	18007	70	13.925930872245
2	18507	71	13.946668972634
2	19008	72	13.921497817454
2	19509	73	12.284853764238
2	20030	74	7.7848537642377
2	20551	75	3.2848537642377
2	21072	76	0
2	21612	77	0
2	22153	78	0
2	22694	79	0
2	23254	80	0
2	23815	81	0
2	24376	82	0
2	24956	83	0
2	25537	84	0
2	26118	85	0
2	26837	86	0
2	30507	87	0
2	36707	88	0
2	39749	89	0
2	45202	90	0
2	46470	91	0
2	48465	92	0
2	49252	93	0
2	50316	94	0
2	50976	95	0
2	51637	96	0
2	52298	97	0
2	52978	98	0
2	53659	99	0
2	54340	100	0
2	55040	101	0
2	55741	102	0
2	56442	103	0
2	57163	104	0
2	57884	105	0
2	58605	106	0
2	59345	107	0
2	60086	108	0
2	60827	109	0
2	61587	110	0
2	62348	111	0
2	63109	112	0
2	63889	113	0
2	64670	114	0
2	65451	115	0
2	66251	116	0
2	67052	117	0
2	67853	118	0
2	68673	119	0
2	69494	120	0
2	70315	121	0
2	71155	122	0
2	71996	123	0
2	72838	124	2.3297445651014
2	73698	125	4.2629109890724
2	74559	126	4.3966710838081
2	76919	127	6.6973992228868
2	80289	128	8.3990350850705
2	83995	129	10.290154089254
2	85081	130	12.29309564446
2	86146	131	13.889489019217
2	87047	132	13.987335655855
2	87948	133	13.939989822153
2	88869	134	13.956251637503
2	89790	135	13.883844361224
2	90711	136	13.998206185109
2	91651	137	13.871639825071
2	92592	138	13.917562734738
2	93533	139	13.947158001943
2	94493	140	13.914409825786
2	95454	141	13.979782667474
2	96415	142	13.884789116071
2	97395	143	13.934817439595
2	98376	144	13.944697211026
2	99357	145	13.996836084912
2	100357	146	13.992615306694
2	101358	147	13.870364688039
2	102359	148	13.952726770383
2	103379	149	13.881764746134
2	104400	150	13.954499414181
2	105421	151	13.898427598283
2	106461	152	13.957856705091
2	107502	153	13.928087334568
2	108544	154	13.935877542337
2	109604	155	13.926629195642
2	110665	156	13.988658835683
2	111726	157	13.978625319814
2	112806	158	13.887087151045
2	113887	159	13.895993567049
2	114968	160	13.906322989657
2	116068	161	13.971738061388
2	117169	162	13.917480717946
2	118270	163	13.894752464972
2	119391	164	13.973524579818
2	120512	165	13.880455955039
2	121633	166	13.954952583315
2	122773	167	13.882738377999
2	123914	168	13.95417649481
2	125055	169	13.904171419307
2	126215	170	13.983324209559
2	127376	171	13.899876450689
2	128537	172	13.980879556229
2	129717	173	13.921090267771
2	130898	174	13.894565292483
2	132079	175	13.986814347405
2	133279	176	13.881257227717
2	134480	177	13.936937010966
2	135681	178	13.918408215987
2	136901	179	13.87747439408
2	138122	180	13.886993307855
2	139343	181	13.996628830947
2	140583	182	13.952229333839
2	141824	183	13.961040044869
2	143066	184	13.926177325458
2	144326	185	13.972158044009
2	145587	186	13.916047135284
2	146848	187	13.909768823318
2	148128	188	13.903066569406
2	149409	189	13.881948408233
2	150690	190	13.877076390313
2	151990	191	13.958550551943
2	153291	192	13.872551332959
2	154592	193	13.909296855829
2	155913	194	13.927234399586
2	157234	195	13.912768095224
2	158555	196	13.946417484221
2	159895	197	13.898835234139
2	161236	198	13.953501856958
2	162577	199	13.974500483265
2	163937	200	13.975393463999
1	21	1	1578.4416120471
1	61	2	1579.4966245294
1	102	3	1581.2776015159
1	143	4	1586.1653365986
1	203	5	1592.3755327258
1	264	6	1599.9554281235
1	325	7	1608.9150987137
1	405	8	1618.7330828821
1	486	9	1628.5774648814
1	567	10	1638.4196562562
1	667	11	1648.4360301802
1	768	12	1660.0725704357
1	869	13	1672.8800310632
1	989	14	1681.6922949329
1	1110	15	1690.9525972893
1	1231	16	1695.3639500989
1	1371	17	1697.2011958091
1	1512	18	1698.541036698
1	1653	19	1699.5699112993
1	1813	20	1700.3040461661
1	1974	21	1700.7837737445
1	2135	22	1701.0583376894
1	2315	23	1703.8447521525
1	2496	24	1712.0460333815
1	2677	25	1722.1372181661
1	2877	26	1734.0981961433
1	3078	27	1747.6328665474
1	3279	28	1761.4906543829
1	3499	29	1775.4009959176
1	3720	30	1789.2945122393
1	3941	31	1803.1846920336
1	4181	32	1817.0826861728
1	4422	33	1830.9873044016
1	4663	34	1844.8958232021
1	4923	35	1858.787373418
1	5184	36	1872.6706152447
1	5445	37	1886.5527931787
1	5725	38	1900.4314930569
1	6006	39	1914.3205429167
1	6287	40	1928.2196500115
1	6587	41	1942.0989239831
1	6888	42	1955.9945893753
1	7189	43	1969.8811024986
1	7509	44	1983.7780732056
1	7830	45	1997.6460498739
1	8151	46	2011.5499500362
1	8491	47	2025.4136744449
1	8832	48	2039.3004943542
1	9173	49	2053.1822455181
1	9533	50	2067.0851366306
1	9894	51	2080.9781504953
1	10255	52	2094.8620636659
1	10635	53	2107.5958017986
1	11016	54	2116.50443774
1	11397	55	2120.966550488
1	11797	56	2120.4964137897
1	12198	57	2120.0263004107
1	12599	58	2119.5562957739
1	13019	59	2119.0856129043
1	13440	60	2118.6154833902
1	13861	61	2118.1451617796
1	14301	62	2117.6747573502
1	14742	63	2117.2052744217
1	15183	64	2116.7349278545
1	15643	65	2116.2643479006
1	16104	66	2115.7947104117
1	16565	67	2114.7714226404
1	17045	68	2112.8172696698
1	17526	69	2110.6040639561
1	18007	70	2106.1301952414
1	18507	71	2101.6563989418
1	19008	72	2096.5653671324
1	19509	73	2089.751967214
1	20030	74	2084.7753551239
1	20551	75	2082.0816266462
1	21072	76	2081.5543324621
1	21612	77	2081.5543324621
1	22153	78	2081.5543324621
1	22694	79	2081.5543324621
1	23254	80	2081.5543324621
1	23815	81	2081.5543324621
1	24376	82	2081.5543324621
1	24956	83	2081.5543324621
1	25537	84	2081.5543324621
1	26118	85	2081.5543324621
1	26837	86	2081.5543324621
1	30507	87	2081.5543324621
1	36707	88	2081.5543324621
1	39749	89	2081.5543324621
1	45202	90	2081.5543324621
1	46470	91	2081.5543324621
1	48465	92	2081.5543324621
1	49252	93	2081.5543324621
1	50316	94	2081.5543324621
1	50976	95	2081.5543324621
1	51637	96	2081.5543324621
1	52298	97	2081.5543324621
1	52978	98	2081.5543324621
1	53659	99	2081.5543324621
1	54340	100	2081.5543324621
1	55040	101	2081.5543324621
1	55741	102	2081.5543324621
1	56442	103	2081.5543324621
1	57163	104	2081.5543324621
1	57884	105	2081.5543324621
1	58605	106	2081.5543324621
1	59345	107	2081.5543324621
1	60086	108	2081.5543324621
1	60827	109	2081.5543324621
1	61587	110	2081.5543324621
1	62348	111	2081.5543324621
1	63109	112	2081.5543324621
1	63889	113	2081.5543324621
1	64670	114	2081.5543324621
1	65451	115	2081.5543324621
1	66251	116	2081.5543324621
1	67052	117	2081.5543324621
1	67853	118	2081.5543324621
1	68673	119	2081.5543324621
1	69494	120	2081.5543324621
1	70315	121	2081.5543324621
1	71155	122	2081.5543324621
1	71996	123	2081.5543324621
1	72838	124	2080.883513934
1	73698	125	2079.176101
1	74559	126	2077.1975434758
1	76919	127	2073.9226117739
1	80289	128	2068.3540817136
1	83995	129	2061.4840418231
1	85081	130	2053.1910408279
1	86146	131	2043.4877064908
1	87047	132	2033.3139568036
1	87948	133	2023.1451795846
1	88869	134	2012.9686506316
1	89790	135	2002.8041641349
1	90711	136	1992.6308429986
1	91651	137	1982.4504953222
1	92592	138	1972.5513487197
1	93533	139	1962.838645326
1	94493	140	1953.1282499032
1	95454	141	1943.4028389016
1	96415	142	1933.6834441219
1	97395	143	1923.9688964002
1	98376	144	1914.2585184174
1	99357	145	1904.5395812923
1	100357	146	1894.8205174943
1	101358	147	1885.1180191981
1	102359	148	1875.3959878068
1	103379	149	1865.5561692314
1	104400	150	1855.5612421744
1	105421	151	1845.5863261465
1	106461	152	1835.6185770426
1	107502	153	1825.648385101
1	108544	154	1815.6715609068
1	109604	155	1805.6921932697
1	110665	156	1795.7268777285
1	111726	157	1785.7466977667
1	112806	158	1775.7859265022
1	113887	159	1765.8700623354
1	114968	160	1756.2843862753
1	116068	161	1746.6824184489
1	117169	162	1737.0224487344
1	118270	163	1727.2659163726
1	119391	164	1717.5051947208
1	120512	165	1707.7549493769
1	121633	166	1697.992753691
1	122773	167	1688.2466626558
1	123914	168	1678.4959424902
1	125055	169	1668.7432550695
1	126215	170	1658.9810383851
1	127376	171	1649.2343620844
1	128537	172	1639.4878895022
1	129717	173	1629.7192855999
1	130898	174	1619.9642340345
1	132079	175	1610.2023848351
1	133279	176	1600.4578386089
1	134480	177	1590.6995760221
1	135681	178	1580.9399767527
1	136901	179	1571.1978596048
1	138122	180	1561.4476604518
1	139343	181	1551.75232914
1	140583	182	1541.8384632645
1	141824	183	1531.9235668378
1	143066	184	1522.0119445026
1	144326	185	1512.0939747551
1	145587	186	1502.1706170533
1	146848	187	1492.5530819753
1	148128	188	1483.4314601179
1	149409	189	1474.3149310304
1	150690	190	1465.1764887199
1	151990	191	1456.056024095
1	153291	192	1447.0116582625
1	154592	193	1438.9818244288
1	155913	194	1430.9405804463
1	157234	195	1422.9026956828
1	158555	196	1414.8587743286
1	159895	197	1407.1491110204
1	161236	198	1401.1994544519
1	162577	199	1395.2442185842
1	163937	200	1389.2919669906
0	21	1	2414.9014220152
0	61	2	2412.0282535021
0	102	3	2407.434272861
0	143	4	2402.6086066293
0	203	5	2396.4772731521
0	264	6	2388.9936340754
0	325	7	2380.1477414317
0	405	8	2370.4544348472
0	486	9	2360.735065655
0	567	10	2351.0178592684
0	667	11	2341.5298487653
0	768	12	2334.7235384902
0	869	13	2336.8243788907
0	989	14	2347.473535693
0	1110	15	2357.7419379568
0	1231	16	2370.3022435491
0	1371	17	2383.9995112187
0	1512	18	2397.5196581341
0	1653	19	2408.4006939746
0	1813	20	2416.1646603449
0	1974	21	2421.2380997778
0	2135	22	2425.4024470274
0	2315	23	2430.5642199855
0	2496	24	2431.857510546
0	2677	25	2433.3910067528
0	2877	26	2435.2086441015
0	3078	27	2437.2654259532
0	3279	28	2438.6622200004
0	3499	29	2439.5314866065
0	3720	30	2440.5417792661
0	3941	31	2441.5518293041
0	4181	32	2442.5624475764
0	4422	33	2443.5735475319
0	4663	34	2444.5849311245
0	4923	35	2445.5950808151
0	5184	36	2446.6046263459
0	5445	37	2447.6140945138
0	5725	38	2448.6233097685
0	6006	39	2449.6332776411
0	6287	40	2450.6439768443
0	6587	41	2449.5656488632
0	6888	42	2448.4523300367
0	7189	43	2447.3397444888
0	7509	44	2446.2263210806
0	7830	45	2445.1152206709
0	8151	46	2444.0012420758
0	8491	47	2442.8904823567
0	8832	48	2441.777872229
0	9173	49	2440.6656682086
0	9533	50	2439.6989606298
0	9894	51	2438.7586376385
0	10255	52	2437.8656483651
0	10635	53	2432.7589399592
0	11016	54	2422.3179143567
0	11397	55	2409.1878704632
0	11797	56	2395.2685581594
0	12198	57	2381.3499362882
0	12599	58	2367.4345339072
0	13019	59	2353.4990511541
0	13440	60	2339.5799515581
0	13861	61	2325.6551645531
0	14301	62	2311.7279255744
0	14742	63	2297.8279693802
0	15183	64	2283.9024435012
0	15643	65	2269.9700077686
0	16104	66	2256.0654755381
0	16565	67	2242.2022168655
0	17045	68	2228.4219174191
0	17526	69	2214.6856643925
0	18007	70	2201.4943822231
0	18507	71	2188.3033135722
0	19008	72	2175.3852950842
0	19509	73	2163.8113479719
0	20030	74	2155.3575589936
0	20551	75	2150.7817126756
0	21072	76	2149.8859961357
0	21612	77	2149.8859961357
0	22153	78	2149.8859961357
0	22694	79	2149.8859961357
0	23254	80	2149.8859961357
0	23815	81	2149.8859961357
0	24376	82	2149.8859961357
0	24956	83	2149.8859961357
0	25537	84	2149.8859961357
0	26118	85	2149.8859961357
0	26837	86	2149.8859961357
0	30507	87	2149.8859961357
0	36707	88	2149.8859961357
0	39749	89	2149.8859961357
0	45202	90	2149.8859961357
0	46470	91	2149.8859961357
0	48465	92	2149.8859961357
0	49252	93	2149.8859961357
0	50316	94	2149.8859961357
0	50976	95	2149.8859961357
0	51637	96	2149.8859961357
0	52298	97	2149.8859961357
0	52978	98	2149.8859961357
0	53659	99	2149.8859961357
0	54340	100	2149.8859961357
0	55040	101	2149.8859961357
0	55741	102	2149.8859961357
0	56442	103	2149.8859961357
0	57163	104	2149.8859961357
0	57884	105	2149.8859961357
0	58605	106	2149.8859961357
0	59345	107	2149.8859961357
0	60086	108	2149.8859961357
0	60827	109	2149.8859961357
0	61587	110	2149.8859961357
0	62348	111	2149.8859961357
0	63109	112	2149.8859961357
0	63889	113	2149.8859961357
0	64670	114	2149.8859961357
0	65451	115	2149.8859961357
0	66251	116	2149.8859961357
0	67052	117	2149.8859961357
0	67853	118	2149.8859961357
0	68673	119	2149.8859961357
0	69494	120	2149.8859961357
0	70315	121	2149.8859961357
0	71155	122	2149.8859961357
0	71996	123	2149.8859961357
0	72838	124	2148.7464742727
0	73698	125	2145.8460857403
0	74559	126	2142.4851029093
0	76919	127	2137.791214744
0	80289	128	2132.5140162446
0	83995	129	2126.0783884241
0	85081	130	2118.309777358
0	86146	131	2109.2200123194
0	87047	132	2099.6895776254
0	87948	133	2090.1638009758
0	88869	134	2080.6307627566
0	89790	135	2071.109005515
0	90711	136	2061.5789722728
0	91651	137	2052.0423567987
0	92592	138	2042.2489347234
0	93533	139	2032.2574583689
0	94493	140	2022.2683562282
0	95454	141	2012.2638075332
0	96415	142	2002.265447736
0	97395	143	1992.2720741183
0	98376	144	1982.282989918
0	99357	145	1972.2851009122
0	100357	146	1962.2870815968
0	101358	147	1952.3061032455
0	102359	148	1942.3050311619
0	103379	149	1932.4651849427
0	104400	150	1922.7115646708
0	105421	151	1912.9774723037
0	106461	152	1903.2503738302
0	107502	153	1893.5208914959
0	108544	154	1883.7849370313
0	109604	155	1874.0465005302
0	110665	156	1864.3217768651
0	111726	157	1854.582547651
0	112806	158	1844.8622585516
0	113887	159	1835.0717527498
0	114968	160	1824.9788591685
0	116068	161	1814.8688117563
0	117169	162	1804.8358194067
0	118270	163	1794.8803013753
0	119391	164	1784.9205086128
0	120512	165	1774.971405823
0	121633	166	1765.0101089635
0	122773	167	1755.0652452101
0	123914	168	1745.1156579148
0	125055	169	1735.1640632426
0	126215	170	1725.2027449555
0	127376	171	1715.2572840012
0	128537	172	1705.3120309189
0	129717	173	1695.3441951467
0	130898	174	1685.3901881119
0	132079	175	1675.4292448055
0	133279	176	1665.4859573679
0	134480	177	1655.5286738231
0	135681	178	1645.5700263339
0	136901	179	1635.629217516
0	138122	180	1625.6801618602
0	139343	181	1615.8286965052
0	140583	182	1606.0076764076
0	141824	183	1596.18563541
0	143066	184	1586.3668378419
0	144326	185	1576.541752306
0	145587	186	1566.7113292761
0	146848	187	1556.6401183951
0	148128	188	1546.0949563804
0	149409	189	1535.5556819246
0	150690	190	1524.9910744202
0	151990	191	1514.447250238
0	153291	192	1503.8393321893
0	154592	193	1492.4449857073
0	155913	194	1481.0344482072
0	157234	195	1469.628677445
0	158555	196	1458.2143407499
0	159895	197	1446.6060996222
0	161236	198	1433.9864491369
0	162577	199	1421.3549645556
0	163937	200	1408.7298098363
9	264	6	4.2301091069722
9	325	7	5.4083752898229
9	405	8	6.4569285084612
9	486	9	6.9981297601067
9	567	10	8.3312879690391
9	667	11	2.4141445356829
9	768	12	2.1874061765078
9	869	13	1.8382242624125
9	989	14	2.0343893016141
9	1110	15	1.9593955015171
9	1231	16	2.2876002045415
9	1371	17	1.6630794257514
9	1512	18	2.3307419132725
9	1653	19	2.0570318190542
9	1813	20	0.973
9	1974	21	0.973
9	2135	22	0.973
9	2315	23	0.973
9	2496	24	0.973
9	2677	25	0.973
9	2877	26	5.0298054635758
9	3078	27	5.3387626171002
9	3279	28	6.0992411196982
9	3499	29	7.6689071873388
9	3720	30	7.6953946644296
9	3941	31	2.2138015462716
9	4181	32	1.8297571526508
9	4422	33	1.9617299658648
9	4663	34	2.2952115578408
9	4923	35	2.0616520584725
9	5184	36	1.754348913972
9	5445	37	2.0877151155648
9	5725	38	1.9439382944776
9	6006	39	2.2854708098026
9	6287	40	1.8636906702153
9	6587	41	2.3542075109855
9	6888	42	2.0212017762597
9	7189	43	1.9852732682006
9	7509	44	2.0501312890771
9	7830	45	1.7295064557081
9	8151	46	2.1721049310558
9	8491	47	2.0260253266059
9	8832	48	2.1004165056056
9	9173	49	2.1222972100305
9	9533	50	1.7195426961875
9	9894	51	2.1943406010272
9	10255	52	2.2204838817958
9	10635	53	1.7147641271474
9	11016	54	2.1203351901188
9	11397	55	2.19090230073
9	11797	56	2.0926411604769
9	12198	57	1.8907404194004
9	12599	58	1.897294422508
9	13019	59	2.1444220061647
9	13440	60	2.2027721979195
9	13861	61	2.0010986474578
9	14301	62	1.9645049360925
9	14742	63	2.186888723854
9	15183	64	1.9083002968928
9	15643	65	2.1406602496428
9	16104	66	1.799153459795
9	16565	67	2.2212608375083
9	17045	68	1.9495279777307
9	17526	69	1.8852368861481
9	18007	70	1.9890193069286
9	18507	71	1.987796202425
9	19008	72	2.1930331348408
9	19509	73	2.2051001228538
9	20030	74	1.9661718581163
9	20551	75	0.973
9	21072	76	0.973
9	21612	77	0.973
9	22153	78	0.973
9	22694	79	0.973
9	23254	80	0.973
9	23815	81	0.973
9	24376	82	0.973
9	24956	83	0.973
9	25537	84	0.973
9	26118	85	0.973
9	26837	86	0.973
9	30507	87	0.973
9	36707	88	0.973
9	39749	89	0.973
9	45202	90	0.973
9	46470	91	0.973
9	48465	92	0.973
9	49252	93	0.973
9	50316	94	0.973
9	50976	95	0.973
9	51637	96	0.973
9	52298	97	0.973
9	52978	98	0.973
9	53659	99	0.973
9	54340	100	0.973
9	55040	101	0.973
9	55741	102	0.973
9	56442	103	0.973
9	57163	104	0.973
9	57884	105	0.973
9	58605	106	0.973
9	59345	107	0.973
9	60086	108	0.973
9	60827	109	0.973
9	61587	110	0.973
9	62348	111	0.973
9	63109	112	0.973
9	63889	113	0.973
9	64670	114	0.973
9	65451	115	0.973
9	66251	116	0.973
9	67052	117	0.973
9	67853	118	0.973
9	68673	119	0.973
9	69494	120	0.973
9	70315	121	0.973
9	71155	122	0.973
9	71996	123	0.973
9	72838	124	1.4055180064092
9	73698	125	2.4086533065113
9	74559	126	1.7683133601167
9	76919	127	2.5921033159178
9	80289	128	1.579951688126
9	83995	129	5.2536730511755
9	85081	130	5.5868251721197
9	86146	131	7.2225100387629
9	87047	132	8.1930261317193
9	87948	133	5.2714115644294
9	88869	134	2.3346173145876
9	89790	135	1.6993496526726
9	90711	136	2.0208465247618
9	91651	137	2.3748548109116
9	92592	138	1.6497843170806
9	93533	139	2.3793424968489
9	94493	140	1.9216199881329
9	95454	141	2.1975633147567
9	96415	142	1.9540544842636
9	97395	143	1.7136191384954
9	98376	144	2.4610255319078
9	99357	145	1.8083089345069
9	100357	146	2.153655299416
9	101358	147	2.082736503218
9	102359	148	1.6779174465943
9	103379	149	2.3357229587957
9	104400	150	2.0390627368016
9	105421	151	1.7085150458506
9	106461	152	2.2817910303295
9	107502	153	2.2131798131429
9	108544	154	1.7028818123344
9	109604	155	2.2277740074734
9	110665	156	1.8033553176747
9	111726	157	2.1389979132213
9	112806	158	2.2210617300063
9	113887	159	1.8245441998536
9	114968	160	2.013151286789
9	116068	161	2.3296096352085
9	117169	162	1.6618643600514
9	118270	163	2.1619013108312
9	119391	164	1.9449602130795
9	120512	165	1.9490582846931
9	121633	166	2.3932886565501
9	122773	167	1.8857045184369
9	123914	168	2.1696741393275
9	125055	169	2.018013845
9	126215	170	1.8381171012985
9	127376	171	2.0299637940969
9	128537	172	2.2891918591283
9	129717	173	1.9318970989814
9	130898	174	1.7954313125162
9	132079	175	2.3281517700624
9	133279	176	1.679115581854
9	134480	177	2.4166532776896
9	135681	178	1.8173208541888
9	136901	179	2.0348909772901
9	138122	180	2.0580566080594
9	139343	181	1.9773992825341
9	140583	182	2.0586194280271
9	141824	183	2.0891470190924
9	143066	184	2.0079933321336
9	144326	185	2.1644917614211
9	145587	186	1.9577084879739
9	146848	187	1.9563376376084
9	148128	188	1.8677559749289
9	149409	189	2.3407721771015
9	150690	190	2.0315389265986
9	151990	191	1.76795872301
9	153291	192	2.3536050547065
9	154592	193	1.9094116528536
9	155913	194	1.9142292227408
9	157234	195	1.8826868758283
9	158555	196	2.2840532334992
9	159895	197	2.0036091639584
9	161236	198	2.2127653892913
9	162577	199	1.962528885755
9	163937	200	1.7477931859519
8	264	6	1.9474421001598
8	325	7	2.0059184591635
8	405	8	1.9846240851143
8	486	9	1.8173657322512
8	567	10	1.9131545290095
8	667	11	0.11784023580519
8	768	12	0.048173203465995
8	869	13	-0.054790777366142
8	989	14	0.0039751141518352
8	1110	15	-0.018007996121888
8	1231	16	0.077808754814324
8	1371	17	-0.10640377648408
8	1512	18	0.091259598622564
8	1653	19	0.0090987256960933
8	1813	20	-0.89915141704996
8	1974	21	-2.5765247842278
8	2135	22	-1.5617496826214
8	2315	23	-1.6316359462101
8	2496	24	-2.6026178634216
8	2677	25	-0.23096030431261
8	2877	26	2.240684374969
8	3078	27	1.8455726963351
8	3279	28	1.78050019952
8	3499	29	1.970705549533
8	3720	30	1.6907719809701
8	3941	31	0.053259000824763
8	4181	32	-0.0593537736102
8	4422	33	-0.019394498721232
8	4663	34	0.077503505891656
8	4923	35	0.0078275678446502
8	5184	36	-0.08148419994628
8	5445	37	0.017589079025202
8	5725	38	-0.024622079397087
8	6006	39	0.074817628990859
8	6287	40	-0.049302461256739
8	6587	41	0.093614317842293
8	6888	42	-0.0049621417489831
8	7189	43	-0.015173091564794
8	7509	44	0.003961388256867
8	7830	45	-0.089072878758888
8	8151	46	0.041741832238621
8	8491	47	-0.0017116748774431
8	8832	48	0.019815375730396
8	9173	49	0.025501057012008
8	9533	50	-0.091893632488791
8	9894	51	0.048361579561606
8	10255	52	0.05428304580273
8	10635	53	-0.093537181308493
8	11016	54	0.026726024830714
8	11397	55	0.046201348118485
8	11797	56	0.016487142750993
8	12198	57	-0.042271767123601
8	12599	58	-0.039240699366202
8	13019	59	0.03342690848047
8	13440	60	0.049132931581697
8	13861	61	-0.010400795512831
8	14301	62	-0.020670054752847
8	14742	63	0.043986489532982
8	15183	64	-0.037562610358
8	15643	65	0.030511548989454
8	16104	66	-0.069028196809814
8	16565	67	0.054902462563478
8	17045	68	-0.025059687276372
8	17526	69	-0.043009790068027
8	18007	70	-0.011700205802917
8	18507	71	-0.011719390831422
8	19008	72	0.047990855693351
8	19509	73	0.049887266790028
8	20030	74	-0.020428126633632
8	20551	75	-1.1208543667452
8	21072	76	-3.3217062188293
8	21612	77	-2.8990814723647
8	22153	78	-2.5620670455075
8	22694	79	-1.8385445180953
8	23254	80	-1.2375505090079
8	23815	81	-0.5397631807636
8	24376	82	-0.43917092785407
8	24956	83	-0.0027816467406933
8	25537	84	0
8	26118	85	0
8	26837	86	0
8	30507	87	0
8	36707	88	0
8	39749	89	0
8	45202	90	0
8	46470	91	0
8	48465	92	0
8	49252	93	0
8	50316	94	0
8	50976	95	0
8	51637	96	0
8	52298	97	0
8	52978	98	0
8	53659	99	0
8	54340	100	0
8	55040	101	0
8	55741	102	0
8	56442	103	0
8	57163	104	0
8	57884	105	0
8	58605	106	0
8	59345	107	0
8	60086	108	0
8	60827	109	0
8	61587	110	0
8	62348	111	0
8	63109	112	0
8	63889	113	0
8	64670	114	0
8	65451	115	0
8	66251	116	0
8	67052	117	0
8	67853	118	0
8	68673	119	0
8	69494	120	0
8	70315	121	0
8	71155	122	0
8	71996	123	0
8	72838	124	1.0115984375509
8	73698	125	1.7489309330713
8	74559	126	0.60671278573259
8	76919	127	1.1526210222475
8	80289	128	0.20407297127544
8	83995	129	2.2475045374781
8	85081	130	1.8707146071945
8	86146	131	2.076951830287
8	87047	132	2.0091022460302
8	87948	133	0.96836588744136
8	88869	134	0.088219181266615
8	89790	135	-0.097988042361104
8	90711	136	-0.0018682719813654
8	91651	137	0.10014698617393
8	92592	138	-0.11248190266546
8	93533	139	0.10187790894648
8	94493	140	-0.03310500856489
8	95454	141	0.04741919633234
8	96415	142	-0.024119884998072
8	97395	143	-0.093358118126636
8	98376	144	0.12526141209994
8	99357	145	-0.066539557350334
8	100357	146	0.035170682584866
8	101358	147	0.013670053051319
8	102359	148	-0.10411653909832
8	103379	149	0.089308921298944
8	104400	150	0.0011230985587467
8	105421	151	-0.094861766146497
8	106461	152	0.073987705516629
8	107502	153	0.051801468499471
8	108544	154	-0.097215745737776
8	109604	155	0.057496817435602
8	110665	156	-0.066978109288028
8	111726	157	0.032237475577276
8	112806	158	0.054811907354743
8	113887	159	-0.06131706496468
8	114968	160	-0.0049281180230896
8	116068	161	0.08630394617794
8	117169	162	-0.10920051499037
8	118270	163	0.038911811814177
8	119391	164	-0.025012190483976
8	120512	165	-0.023125382238067
8	121633	166	0.10566607895074
8	122773	167	-0.043757488415578
8	123914	168	0.039456234651153
8	125055	169	-0.0053975355857983
8	126215	170	-0.057311906267424
8	127376	171	-0.00010822163196345
8	128537	172	0.074513422588353
8	129717	173	-0.030588116666769
8	130898	174	-0.069390147502999
8	132079	175	0.086558528281747
8	133279	176	-0.1037409145711
8	134480	177	0.11249414579244
8	135681	178	-0.063669155742973
8	136901	179	0.0011379051720724
8	138122	180	0.0077998632867811
8	139343	181	-0.01576190188527
8	140583	182	0.008201620646286
8	141824	183	0.016768686152064
8	143066	184	-0.0071716150548315
8	144326	185	0.038166339707095
8	145587	186	-0.022594285153318
8	146848	187	-0.022358971254434
8	148128	188	-0.047472565355712
8	149409	189	0.090585710084998
8	150690	190	-0.001224934463389
8	151990	191	-0.077599320798182
8	153291	192	0.093839812988881
8	154592	193	-0.036928499036001
8	155913	194	-0.034532751443331
8	157234	195	-0.042773271685
8	158555	196	0.074617592669092
8	159895	197	-0.0085710955061948
8	161236	198	0.051925357959698
8	162577	199	-0.021674993974155
8	163937	200	-0.083439164760058
7	203	5	4.0425376740037
7	264	6	5.9899797741635
7	325	7	7.995898233327
7	405	8	9.9805223184414
7	486	9	11.797888050693
7	567	10	13.711042579702
7	667	11	13.828882815507
7	768	12	13.877056018973
7	869	13	13.822265241607
7	989	14	13.826240355759
7	1110	15	13.808232359637
7	1231	16	13.886041114451
7	1371	17	13.779637337967
7	1512	18	13.87089693659
7	1653	19	13.879995662286
7	1813	20	12.980844245236
7	1974	21	10.404319461008
7	2135	22	8.8425697783867
7	2315	23	7.2109338321766
7	2496	24	4.608315968755
7	2677	25	4.3773556644424
7	2877	26	6.6180400394114
7	3078	27	8.4636127357465
7	3279	28	10.244112935267
7	3499	29	12.2148184848
7	3720	30	13.90559046577
7	3941	31	13.958849466594
7	4181	32	13.899495692984
7	4422	33	13.880101194263
7	4663	34	13.957604700155
7	4923	35	13.965432267999
7	5184	36	13.883948068053
7	5445	37	13.901537147078
7	5725	38	13.876915067681
7	6006	39	13.951732696672
7	6287	40	13.902430235415
7	6587	41	13.996044553258
7	6888	42	13.991082411509
7	7189	43	13.975909319944
7	7509	44	13.979870708201
7	7830	45	13.890797829442
7	8151	46	13.93253966168
7	8491	47	13.930827986803
7	8832	48	13.950643362533
7	9173	49	13.976144419545
7	9533	50	13.884250787057
7	9894	51	13.932612366618
7	10255	52	13.986895412421
7	10635	53	13.893358231112
7	11016	54	13.920084255943
7	11397	55	13.966285604062
7	11797	56	13.982772746813
7	12198	57	13.940500979689
7	12599	58	13.901260280323
7	13019	59	13.934687188803
7	13440	60	13.983820120385
7	13861	61	13.973419324872
7	14301	62	13.952749270119
7	14742	63	13.996735759652
7	15183	64	13.959173149294
7	15643	65	13.989684698284
7	16104	66	13.920656501474
7	16565	67	13.975558964037
7	17045	68	13.950499276761
7	17526	69	13.907489486693
7	18007	70	13.89578928089
7	18507	71	13.884069890059
7	19008	72	13.932060745752
7	19509	73	13.981948012542
7	20030	74	13.961519885908
7	20551	75	12.840665519163
7	21072	76	9.5189593003338
7	21612	77	6.6198778279691
7	22153	78	4.0578107824616
7	22694	79	2.2192662643663
7	23254	80	0.98171575535837
7	23815	81	0.44195257459476
7	24376	82	0.0027816467406933
7	24956	83	0
7	25537	84	0
7	26118	85	0
7	26837	86	0
7	30507	87	0
7	36707	88	0
7	39749	89	0
7	45202	90	0
7	46470	91	0
7	48465	92	0
7	49252	93	0
7	50316	94	0
7	50976	95	0
7	51637	96	0
7	52298	97	0
7	52978	98	0
7	53659	99	0
7	54340	100	0
7	55040	101	0
7	55741	102	0
7	56442	103	0
7	57163	104	0
7	57884	105	0
7	58605	106	0
7	59345	107	0
7	60086	108	0
7	60827	109	0
7	61587	110	0
7	62348	111	0
7	63109	112	0
7	63889	113	0
7	64670	114	0
7	65451	115	0
7	66251	116	0
7	67052	117	0
7	67853	118	0
7	68673	119	0
7	69494	120	0
7	70315	121	0
7	71155	122	0
7	71996	123	0
7	72838	124	1.0115984375509
7	73698	125	2.7605293706223
7	74559	126	3.3672421563549
7	76919	127	4.5198631786024
7	80289	128	4.7239361498778
7	83995	129	6.9714406873559
7	85081	130	8.8421552945504
7	86146	131	10.919107124837
7	87047	132	12.928209370868
7	87948	133	13.896575258309
7	88869	134	13.984794439576
7	89790	135	13.886806397215
7	90711	136	13.884938125233
7	91651	137	13.985085111407
7	92592	138	13.872603208742
7	93533	139	13.974481117688
7	94493	140	13.941376109123
7	95454	141	13.988795305456
7	96415	142	13.964675420457
7	97395	143	13.871317302331
7	98376	144	13.996578714431
7	99357	145	13.93003915708
7	100357	146	13.965209839665
7	101358	147	13.978879892717
7	102359	148	13.874763353618
7	103379	149	13.964072274917
7	104400	150	13.965195373476
7	105421	151	13.87033360733
7	106461	152	13.944321312846
7	107502	153	13.996122781346
7	108544	154	13.898907035608
7	109604	155	13.956403853043
7	110665	156	13.889425743755
7	111726	157	13.921663219333
7	112806	158	13.976475126687
7	113887	159	13.915158061723
7	114968	160	13.9102299437
7	116068	161	13.996533889878
7	117169	162	13.887333374887
7	118270	163	13.926245186701
7	119391	164	13.901232996217
7	120512	165	13.878107613979
7	121633	166	13.98377369293
7	122773	167	13.940016204515
7	123914	168	13.979472439166
7	125055	169	13.97407490358
7	126215	170	13.916762997312
7	127376	171	13.916654775681
7	128537	172	13.991168198269
7	129717	173	13.960580081602
7	130898	174	13.891189934099
7	132079	175	13.977748462381
7	133279	176	13.87400754781
7	134480	177	13.986501693602
7	135681	178	13.922832537859
7	136901	179	13.923970443031
7	138122	180	13.931770306318
7	139343	181	13.916008404433
7	140583	182	13.924210025079
7	141824	183	13.940978711231
7	143066	184	13.933807096176
7	144326	185	13.971973435883
7	145587	186	13.94937915073
7	146848	187	13.927020179476
7	148128	188	13.87954761412
7	149409	189	13.970133324205
7	150690	190	13.968908389742
7	151990	191	13.891309068943
7	153291	192	13.985148881932
7	154592	193	13.948220382896
7	155913	194	13.913687631453
7	157234	195	13.870914359768
7	158555	196	13.945531952437
7	159895	197	13.936960856931
7	161236	198	13.988886214891
7	162577	199	13.967211220916
7	163937	200	13.883772056156
6	143	4	1578.4472822268
6	203	5	1579.5086799795
6	264	6	1581.463551742
6	325	7	1586.5215602648
6	405	8	1592.9907937236
6	486	9	1600.8370654397
6	567	10	1609.9987445669
6	667	11	1619.8356540762
6	768	12	1629.6860002102
6	869	13	1639.5136572961
6	989	14	1649.6652132459
6	1110	15	1661.608180549
6	1231	16	1673.8534141136
6	1371	17	1682.7311922461
6	1512	18	1692.0008722087
6	1653	19	1695.5930600381
6	1813	20	1697.3638825528
6	1974	21	1698.4781867648
6	2135	22	1699.3508925885
6	2315	23	1700.1320105875
6	2496	24	1700.6757637747
6	2677	25	1700.9763333295
6	2877	26	1702.0570003456
6	3078	27	1709.2184885982
6	3279	28	1718.486905667
6	3499	29	1729.7221734524
6	3720	30	1742.8166470975
6	3941	31	1756.6257166937
6	4181	32	1770.5424128035
6	4422	33	1784.4431180377
6	4663	34	1798.3453813354
6	4923	35	1812.2489111917
6	5184	36	1826.1338232355
6	5445	37	1840.0052115899
6	5725	38	1853.8865276687
6	6006	39	1867.7613132671
6	6287	40	1881.6495191753
6	6587	41	1895.5577214556
6	6888	42	1909.4568237681
6	7189	43	1923.3535482474
6	7509	44	1937.2407883173
6	7830	45	1951.1177424677
6	8151	46	1965.0138413142
6	8491	47	1978.8952731136
6	8832	48	1992.7971214326
6	9173	49	2006.673840113
6	9533	50	2020.5721973078
6	9894	51	2034.4503232781
6	10255	52	2048.3538283575
6	10635	53	2062.237618464
6	11016	54	2076.1422634898
6	11397	55	2090.0447951443
6	11797	56	2103.4108257322
6	12198	57	2113.9630808383
6	12599	58	2119.9180992302
6	13019	59	2120.6601283913
6	13440	60	2120.1890040431
6	13861	61	2119.718827513
6	14301	62	2119.2483964385
6	14742	63	2118.7775251754
6	15183	64	2118.3070764719
6	15643	65	2117.8366521066
6	16104	66	2117.3661412979
6	16565	67	2116.8956251917
6	17045	68	2116.4246807871
6	17526	69	2115.9545613071
6	18007	70	2115.4322686028
6	18507	71	2113.4771187576
6	19008	72	2111.517916047
6	19509	73	2107.6334060756
6	20030	74	2103.1587952022
6	20551	75	2098.7578800702
6	21072	76	2093.4738733796
6	21612	77	2089.4728623815
6	22153	78	2086.8610641453
6	22694	79	2085.348645689
6	23254	80	2084.598813911
6	23815	81	2084.2755029062
6	24376	82	2084.0913831079
6	24956	83	2084.0913773561
6	25537	84	2084.0913773561
6	26118	85	2084.0913773561
6	26837	86	2084.0913773561
6	30507	87	2084.0913773561
6	36707	88	2084.0913773561
6	39749	89	2084.0913773561
6	45202	90	2084.0913773561
6	46470	91	2084.0913773561
6	48465	92	2084.0913773561
6	49252	93	2084.0913773561
6	50316	94	2084.0913773561
6	50976	95	2084.0913773561
6	51637	96	2084.0913773561
6	52298	97	2084.0913773561
6	52978	98	2084.0913773561
6	53659	99	2084.0913773561
6	54340	100	2084.0913773561
6	55040	101	2084.0913773561
6	55741	102	2084.0913773561
6	56442	103	2084.0913773561
6	57163	104	2084.0913773561
6	57884	105	2084.0913773561
6	58605	106	2084.0913773561
6	59345	107	2084.0913773561
6	60086	108	2084.0913773561
6	60827	109	2084.0913773561
6	61587	110	2084.0913773561
6	62348	111	2084.0913773561
6	63109	112	2084.0913773561
6	63889	113	2084.0913773561
6	64670	114	2084.0913773561
6	65451	115	2084.0913773561
6	66251	116	2084.0913773561
6	67052	117	2084.0913773561
6	67853	118	2084.0913773561
6	68673	119	2084.0913773561
6	69494	120	2084.0913773561
6	70315	121	2084.0913773561
6	71155	122	2084.0913773561
6	71996	123	2084.0913773561
6	72838	124	2083.8415159117
6	73698	125	2082.8379719844
6	74559	126	2081.2856633887
6	76919	127	2079.1107082088
6	80289	128	2077.058706427
6	83995	129	2073.5191254634
6	85081	130	2067.6856360147
6	86146	131	2060.4215953555
6	87047	132	2051.6059240969
6	87948	133	2041.6141160876
6	88869	134	2031.4485583976
6	89790	135	2021.2742513455
6	90711	136	2011.0943402322
6	91651	137	2000.9190508332
6	92592	138	1990.7496809661
6	93533	139	1980.5673726154
6	94493	140	1970.7511571357
6	95454	141	1961.0414251825
6	96415	142	1951.3305540066
6	97395	143	1941.6230855966
6	98376	144	1931.8992240224
6	99357	145	1922.1897319276
6	100357	146	1912.4751856066
6	101358	147	1902.761581324
6	102359	148	1893.0482705384
6	103379	149	1883.3238377739
6	104400	150	1873.6010529008
6	105421	151	1863.6956790099
6	106461	152	1853.7288542697
6	107502	153	1843.7479296904
6	108544	154	1833.7748708241
6	109604	155	1823.7839330686
6	110665	156	1813.8238297673
6	111726	157	1803.8430276411
6	112806	158	1793.8805652075
6	113887	159	1783.9081733022
6	114968	160	1773.953549563
6	116068	161	1764.1024897275
6	117169	162	1754.5029958077
6	118270	163	1744.9034961695
6	119391	164	1735.2135436097
6	120512	165	1725.4646495562
6	121633	166	1715.7142761843
6	122773	167	1705.9595537297
6	123914	168	1696.1979224579
6	125055	169	1686.4408054007
6	126215	170	1676.6787394332
6	127376	171	1666.9294322124
6	128537	172	1657.1726133497
6	129717	173	1647.3985287705
6	130898	174	1637.6402851036
6	132079	175	1627.8838084964
6	133279	176	1618.1329750475
6	134480	177	1608.3752100645
6	135681	178	1598.6210850598
6	136901	179	1588.8634282527
6	138122	180	1579.115065719
6	139343	181	1569.3633384015
6	140583	182	1559.6083960738
6	141824	183	1549.8799164966
6	143066	184	1539.979403954
6	144326	185	1530.077864279
6	145587	186	1520.1630799519
6	146848	187	1510.2577427048
6	148128	188	1500.3506412376
6	149409	189	1490.858649049
6	150690	190	1481.7294721724
6	151990	191	1472.6054632282
6	153291	192	1463.4658634765
6	154592	193	1454.3336823434
6	155913	194	1445.4882846102
6	157234	195	1437.4508950654
6	158555	196	1429.405696
6	159895	197	1421.3596109133
6	161236	198	1413.3085410427
6	162577	199	1406.0092774583
6	163937	200	1400.0590919172
5	143	4	2414.8859801291
5	203	5	2411.9954222892
5	264	6	2407.2506839979
5	325	7	2402.2569066116
5	405	8	2395.8698252906
5	486	9	2388.1231925822
5	567	10	2379.0778566878
5	667	11	2369.3658650925
5	768	12	2359.6406075037
5	869	13	2349.9377508366
5	989	14	2340.5696662485
5	1110	15	2334.4685549028
5	1231	16	2338.029717051
5	1371	17	2348.6255299923
5	1512	18	2358.9043307323
5	1653	19	2371.8350753159
5	1813	20	2385.3663703802
5	1974	21	2396.8549781273
5	2135	22	2406.0844248855
5	2315	23	2414.3452692438
5	2496	24	2420.0958222281
5	2677	25	2423.9862948015
5	2877	26	2429.4993003103
5	3078	27	2431.427825698
5	3279	28	2432.8362908805
5	3499	29	2434.5436464486
5	3720	30	2436.5335342661
5	3941	31	2438.3299803259
5	4181	32	2439.1886723154
5	4422	33	2440.1890011905
5	4663	34	2441.1999299027
5	4923	35	2442.2109507151
5	5184	36	2443.2206176987
5	5445	37	2444.2293012826
5	5725	38	2445.238706779
5	6006	39	2446.2476373996
5	6287	40	2447.2575439028
5	6587	41	2448.2689044791
5	6888	42	2449.2796033344
5	7189	43	2450.2901292811
5	7509	44	2449.9548820338
5	7830	45	2448.8430623495
5	8151	46	2447.7297087947
5	8491	47	2446.6175303617
5	8832	48	2445.50371616
5	9173	49	2444.3919153415
5	9533	50	2443.2783808481
5	9894	51	2442.1664672778
5	10255	52	2441.0525203367
5	10635	53	2440.0270559463
5	11016	54	2439.0859457215
5	11397	55	2438.5427623577
5	11797	56	2435.2747637217
5	12198	57	2426.4685505354
5	12599	58	2413.9258769645
5	13019	59	2400.1156476981
5	13440	60	2386.1670940989
5	13861	61	2372.2466024841
5	14301	62	2358.318574614
5	14742	63	2344.3775140973
5	15183	64	2330.4489642661
5	15643	65	2316.5211350349
5	16104	66	2302.5907464555
5	16565	67	2288.6602010678
5	17045	68	2274.7169750297
5	17526	69	2260.7981725226
5	18007	70	2246.862371614
5	18507	71	2233.0750424088
5	19008	72	2219.2591332041
5	19509	73	2205.926626337
5	20030	74	2192.7331559004
5	20551	75	2179.7569786774
5	21072	76	2170.1337634519
5	21612	77	2163.3372315818
5	22153	78	2158.9005604605
5	22694	79	2156.3314097527
5	23254	80	2155.0576677968
5	23815	81	2154.5084582217
5	24376	82	2154.1956932537
5	24956	83	2154.1956834835
5	25537	84	2154.1956834835
5	26118	85	2154.1956834835
5	26837	86	2154.1956834835
5	30507	87	2154.1956834835
5	36707	88	2154.1956834835
5	39749	89	2154.1956834835
5	45202	90	2154.1956834835
5	46470	91	2154.1956834835
5	48465	92	2154.1956834835
5	49252	93	2154.1956834835
5	50316	94	2154.1956834835
5	50976	95	2154.1956834835
5	51637	96	2154.1956834835
5	52298	97	2154.1956834835
5	52978	98	2154.1956834835
5	53659	99	2154.1956834835
5	54340	100	2154.1956834835
5	55040	101	2154.1956834835
5	55741	102	2154.1956834835
5	56442	103	2154.1956834835
5	57163	104	2154.1956834835
5	57884	105	2154.1956834835
5	58605	106	2154.1956834835
5	59345	107	2154.1956834835
5	60086	108	2154.1956834835
5	60827	109	2154.1956834835
5	61587	110	2154.1956834835
5	62348	111	2154.1956834835
5	63109	112	2154.1956834835
5	63889	113	2154.1956834835
5	64670	114	2154.1956834835
5	65451	115	2154.1956834835
5	66251	116	2154.1956834835
5	67052	117	2154.1956834835
5	67853	118	2154.1956834835
5	68673	119	2154.1956834835
5	69494	120	2154.1956834835
5	70315	121	2154.1956834835
5	71155	122	2154.1956834835
5	71996	123	2154.1956834835
5	72838	124	2153.7712429438
5	73698	125	2152.066519241
5	74559	126	2149.4296070077
5	76919	127	2145.735002769
5	80289	128	2142.2492599121
5	83995	129	2137.3524596574
5	85081	130	2131.8878382595
5	86146	131	2125.0831234546
5	87047	132	2116.8248920455
5	87948	133	2107.4648943418
5	88869	134	2097.9421336411
5	89790	135	2088.4111768255
5	90711	136	2078.8749703096
5	91651	137	2069.3430932637
5	92592	138	2059.8167614414
5	93533	139	2050.2783092723
5	94493	140	2040.3970742357
5	95454	141	2030.4086546074
5	96415	142	2020.419063058
5	97395	143	2010.4329719411
5	98376	144	2000.430017145
5	99357	145	1990.4418442594
5	100357	146	1980.4484720819
5	101358	147	1970.4560689805
5	102359	148	1960.4639678006
5	103379	149	1950.4604254197
5	104400	150	1940.4585782279
5	105421	151	1930.6496123993
5	106461	152	1920.9234159723
5	107502	153	1911.183460118
5	108544	154	1901.4511800744
5	109604	155	1891.7014527916
5	110665	156	1881.9818155282
5	111726	157	1872.2419791702
5	112806	158	1862.5200397313
5	113887	159	1852.7884105465
5	114968	160	1843.074120553
5	116068	161	1833.2106506098
5	117169	162	1823.1032080089
5	118270	163	1812.9957593867
5	119391	164	1802.990021441
5	120512	165	1793.0422975019
5	121633	166	1783.0930640738
5	122773	167	1773.1393928622
5	123914	168	1763.1786719277
5	125055	169	1753.2225572761
5	126215	170	1743.2613927793
5	127376	171	1733.3132472466
5	128537	172	1723.3574368709
5	129717	173	1713.3840086426
5	130898	174	1703.4267444029
5	132079	175	1693.4712832636
5	133279	176	1683.5215803741
5	134480	177	1673.5648045825
5	135681	178	1663.6117430056
5	136901	179	1653.6550775958
5	138122	180	1643.7078960164
5	139343	181	1633.7572810292
5	140583	182	1623.8033854605
5	141824	183	1613.9738194636
5	143066	184	1604.1660276421
5	144326	185	1594.357218307
5	145587	186	1584.5352883603
5	146848	187	1574.7227170181
5	148128	188	1564.9083979785
5	149409	189	1554.6812485781
5	150690	190	1544.1273524917
5	151990	191	1533.5794308569
5	153291	192	1523.0134852785
5	154592	193	1512.4561160846
5	155913	194	1501.6776626483
5	157234	195	1490.272594602
5	158555	196	1478.8564448332
5	159895	197	1467.4390377984
5	161236	198	1456.0145573477
5	162577	199	1444.1884304686
5	163937	200	1431.5676579935
54	4422	33	4.4654144542034
54	4663	34	5.0736288288642
54	4923	35	6.5003253611678
54	5184	36	7.8342005736709
54	5445	37	8.2192715786142
54	5725	38	2.0878491414744
54	6006	39	1.852323959212
54	6287	40	2.3105485279139
54	6587	41	1.7784726977418
54	6888	42	2.0052274149834
54	7189	43	1.9008087301602
54	7509	44	2.4409008440009
54	7830	45	1.9310990962417
54	8151	46	1.9198397040568
54	8491	47	0.973
54	8832	48	0.973
54	9173	49	0.973
54	9533	50	1.3608302694114
54	9894	51	0.973
54	10255	52	0.973
54	10635	53	5.184935816776
54	11016	54	5.8916614605314
54	11397	55	6.3479702360366
54	11797	56	7.921999441144
54	12198	57	7.6510802982193
54	12599	58	1.8372209578198
54	13019	59	1.8615060243298
54	13440	60	1.9847374119693
54	13861	61	2.3743664181622
54	14301	62	2.1246117638948
54	14742	63	1.624125568904
54	15183	64	2.1372042694608
54	15643	65	1.9852002402299
54	16104	66	1.9744675282212
54	16565	67	2.1631406560481
54	17045	68	2.0370422560844
54	17526	69	1.9460966935023
54	18007	70	2.2243258707623
54	18507	71	2.1036918123919
54	19008	72	1.8617874503507
54	19509	73	2.2730233932817
54	20030	74	2.0444548706331
54	20551	75	1.7022264745836
54	21072	76	2.1874513561743
54	21612	77	1.9267802728359
54	22153	78	2.1186333180245
54	22694	79	1.8545368441952
54	23254	80	1.9762726122655
54	23815	81	2.329541735546
54	24376	82	2.040845848095
54	24956	83	2.1499178336586
54	25537	84	1.8684832879437
54	26118	85	2.0477387033513
54	26837	86	1.8758011718824
54	30507	87	2.1509465778145
54	36707	88	2.0563865205322
54	39749	89	1.977053419609
54	45202	90	2.1009433731572
54	46470	91	1.8506258357189
54	48465	92	2.2911419532241
54	49252	93	1.7938537849161
54	50316	94	2.2938724684127
54	50976	95	1.7424847504855
54	51637	96	2.1130616188835
54	52298	97	2.1594339358181
54	52978	98	0.973
54	53659	99	0.973
54	54340	100	0.973
54	55040	101	0.973
54	55741	102	0.973
54	56442	103	0.973
54	57163	104	0.973
54	57884	105	0.973
54	58605	106	0.973
54	59345	107	0.973
54	60086	108	0.973
54	60827	109	0.973
54	61587	110	0.973
54	62348	111	0.973
54	63109	112	0.973
54	63889	113	0.973
54	64670	114	0.973
54	65451	115	0.973
54	66251	116	0.973
54	67052	117	0.973
54	67853	118	0.973
54	68673	119	0.973
54	69494	120	0.973
54	70315	121	0.973
54	71155	122	0.973
54	71996	123	0.973
54	72838	124	0.973
54	73698	125	0.973
54	74559	126	0.973
54	76919	127	0.973
54	80289	128	0.973
54	83995	129	0.973
54	85081	130	0.973
54	86146	131	0.973
54	87047	132	0.973
54	87948	133	0.973
54	88869	134	0.973
54	89790	135	0.973
54	90711	136	0.973
54	91651	137	0.973
54	92592	138	0.973
54	93533	139	0.973
54	94493	140	0.973
54	95454	141	0.973
54	96415	142	0.973
54	97395	143	0.973
54	98376	144	0.973
54	99357	145	0.973
54	100357	146	0.973
54	101358	147	0.973
54	102359	148	0.973
54	103379	149	0.973
54	104400	150	0.973
54	105421	151	0.973
54	106461	152	0.973
54	107502	153	0.973
54	108544	154	2.4939823682767
54	109604	155	3.1912551557385
54	110665	156	4.3769983156549
54	111726	157	4.8290708494808
54	112806	158	5.8316462615005
54	113887	159	6.5944665865132
54	114968	160	0.973
54	116068	161	0.973
54	117169	162	0.973
54	118270	163	3.4025695823535
54	119391	164	5.0676912487698
54	120512	165	6.188800004517
54	121633	166	7.3169044662297
54	122773	167	8.7140365752381
54	123914	168	3.7872966510604
54	125055	169	1.9646403371703
54	126215	170	2.1320612319563
54	127376	171	1.8204816449484
54	128537	172	2.1423381871159
54	129717	173	2.1275762754958
54	130898	174	2.0092495728036
54	132079	175	2.0676779761931
54	133279	176	1.8775909671115
54	134480	177	2.2660221507851
54	135681	178	1.727173889423
54	136901	179	2.2719105086863
54	138122	180	1.9586295959805
54	139343	181	2.1285354506244
54	140583	182	2.084914153992
54	141824	183	1.6693626786142
54	143066	184	2.1181737627298
54	144326	185	1.9340219765248
54	145587	186	2.2853528835894
54	146848	187	2.1194837324468
54	148128	188	1.7077291725858
54	149409	189	2.1249402082979
54	150690	190	2.1647278039944
54	151990	191	2.1160962652217
54	153291	192	1.82649188015
54	154592	193	2.2693149863805
54	155913	194	1.8236581194687
54	157234	195	2.0398467604319
54	158555	196	2.1403792282729
54	159895	197	1.9829317033568
54	161236	198	1.8596890768758
54	162577	199	2.1980614374704
54	163937	200	1.9106015098291
53	4422	33	2.1108386883535
53	4663	34	1.8691156523162
53	4923	35	2.0254057548312
53	5184	36	2.0776507037738
53	5445	37	1.8608188961036
53	5725	38	0.019533643305767
53	6006	39	-0.049742171096149
53	6287	40	0.085004836751613
53	6587	41	-0.072280976942274
53	6888	42	-0.0040022042999048
53	7189	43	-0.034438937976956
53	7509	44	0.1234809487802
53	7830	45	-0.028024048998487
53	8151	46	-0.03053516549291
53	8491	47	-1.188999807438
53	8832	48	-2.3713316985366
53	9173	49	-2.2913019514486
[...]
49	146848	187	1.9433705220726
49	148128	188	1.8377789393573
49	149409	189	1.9729368675087
49	150690	190	2.3616900553168
49	151990	191	1.7404084652403
49	153291	192	2.0651826249807
49	154592	193	2.3372085391536
49	155913	194	1.963861445121
49	157234	195	1.8092106457634
49	158555	196	2.2316589224365
49	159895	197	2.13126449009
49	161236	198	1.6848847184049
49	162577	199	1.9924664758703
49	163937	200	2.2186151260445
48	3720	30	1.9568191743502
48	3941	31	1.9572691578092
48	4181	32	1.7314382667607
48	4422	33	1.713887941076
48	4663	34	1.7811930986517
48	4923	35	0.5455487020282
48	5184	36	0.014625610450748
48	5445	37	-0.12835575377569
48	5725	38	0.086069189966656
48	6006	39	-0.0032880703615952
48	6287	40	0.0367009765096
48	6587	41	-0.10748315524077
48	6888	42	0.050165324136614
48	7189	43	0.053652309875471
48	7509	44	-1.3927549439091
48	7830	45	-2.3100111124945
48	8151	46	-2.2251499659377
48	8491	47	-0.048479581583107
48	8832	48	-2.7187145226647
48	9173	49	-1.3405991529233
48	9533	50	2.332728817747
48	9894	51	2.0231203507166
48	10255	52	1.8883653629874
48	10635	53	2.006740005943
48	11016	54	1.8673009272524
48	11397	55	-0.084638701267542
48	11797	56	0.09849415921839
48	12198	57	0.00537992921425
48	12599	58	-0.064389257105066
48	13019	59	-0.0091464570048263
48	13440	60	0.081863851931411
48	13861	61	0.011321710660123
48	14301	62	-0.12257896858733
48	14742	63	0.095039613645058
48	15183	64	-0.041067937707995
48	15643	65	0.023292321457994
48	16104	66	-0.034027653224767
48	16565	67	0.069706433343235
48	17045	68	-0.061600774463731
48	17526	69	0.055408083661458
48	18007	70	-0.027394999936222
48	18507	71	0.014955741502344
48	19008	72	-0.081735791058746
48	19509	73	0.07110673281597
48	20030	74	0.03683202761691
48	20551	75	-0.047641739291139
48	21072	76	0.041505734035745
48	21612	77	-0.055693347149063
48	22153	78	-0.060849470170213
48	22694	79	0.0160685518221
48	23254	80	0.030786899500526
48	23815	81	-0.029142764753198
48	24376	82	0.10338073273888
48	24956	83	-0.062786457769107
48	25537	84	0.012529305473436
48	26118	85	-0.07114103670232
48	26837	86	0.027723220291083
48	30507	87	0.04872392643243
48	36707	88	0.03577303858474
48	39749	89	0.012846215711905
48	45202	90	-0.12471747037256
48	46470	91	-0.0012042467202988
48	48465	92	0.0548298295727
48	49252	93	0.071047680857591
48	50316	94	-0.0086013939091938
48	50976	95	-0.058015003560577
48	51637	96	-1.8905416839451
48	52298	97	-2.4210490806034
48	52978	98	-2.3446551804299
48	53659	99	-2.1288214502022
48	54340	100	-1.8070017107317
48	55040	101	-1.3787561401536
48	55741	102	-1.0892962835227
48	56442	103	-0.43374646576275
48	57163	104	-0.43767592979815
48	57884	105	-1.4395228480936e-05
48	58605	106	0
48	59345	107	0
48	60086	108	0
48	60827	109	0
48	61587	110	0
48	62348	111	0
48	63109	112	0
48	63889	113	0
48	64670	114	0
48	65451	115	0
48	66251	116	0
48	67052	117	0
48	67853	118	0
48	68673	119	0
48	69494	120	0
48	70315	121	0
48	71155	122	0
48	71996	123	0
48	72838	124	0.19433738710931
48	73698	125	0.24082393644038
48	74559	126	0.0012082713644486
48	76919	127	-0.012673812662958
48	80289	128	0.009810221343193
48	83995	129	-0.0046779669506941
48	85081	130	0.015721938294724
48	86146	131	0.77391522598521
48	87047	132	0.74337559854627
48	87948	133	0.5510745483468
48	88869	134	0.43352212091523
48	89790	135	0.43606214677679
48	90711	136	0.27667514061965
48	91651	137	0.27478859190367
48	92592	138	-0.0036013361932286
48	93533	139	0.35040229140405
48	94493	140	-0.16894622671429
48	95454	141	0.4959703015707
48	96415	142	-0.56481324849572
48	97395	143	0.91138790278822
48	98376	144	-1.2044088570048
48	99357	145	1.7062252531966
48	100357	146	1.9400704941549
48	101358	147	2.1239184190473
48	102359	148	1.9837532304577
48	103379	149	1.7679876518249
48	104400	150	0.70644635365013
48	105421	151	-0.038986439798029
48	106461	152	0.019033402765636
48	107502	153	-0.041445179483853
48	108544	154	0.0051127103483299
48	109604	155	0.072027522230055
48	110665	156	-0.11453917977167
48	111726	157	0.10039914753521
48	112806	158	-0.079316215631552
48	113887	159	0.018383460652549
48	114968	160	0.0013473963644355
48	116068	161	-0.048521068105474
48	117169	162	0.10379865516908
48	118270	163	0.0090687707741743
48	119391	164	-0.10164035418769
48	120512	165	0.0094685785728501
48	121633	166	0.071647336711177
48	122773	167	-0.086952252942138
48	123914	168	0.080316083179788
48	125055	169	0.022720536484847
48	126215	170	-0.08889446524903
48	127376	171	0.019083156308625
48	128537	172	0.035964823763351
48	129717	173	0.0069304137304425
48	130898	174	-0.00035645538940976
48	132079	175	0.04552270765882
48	133279	176	-0.050631316876972
48	134480	177	0.033471430959182
48	135681	178	0.00026650133309758
48	136901	179	0.0042365497746513
48	138122	180	-0.0053941953624594
48	139343	181	-0.071269305818715
48	140583	182	0.058567956429906
48	141824	183	-6.5417133736645e-05
48	143066	184	-0.084727542763575
48	144326	185	0.030632965434341
48	145587	186	0.068537401121576
48	146848	187	-0.027022941522301
48	148128	188	-0.056925138975494
48	149409	189	-0.016102756822946
48	150690	190	0.096483322430867
48	151990	191	-0.085862899189815
48	153291	192	0.010801560597029
48	154592	193	0.088714438122697
48	155913	194	-0.021384297534825
48	157234	195	-0.065634417301043
48	158555	196	0.058402181286365
48	159895	197	0.027672596483026
48	161236	198	-0.1023591803899
48	162577	199	-0.010166514993179
48	163937	200	0.055532860367093
47	3499	29	4.1885270936726
47	3720	30	6.1453462680228
47	3941	31	8.102615425832
47	4181	32	9.8340536925927
47	4422	33	11.547941633669
47	4663	34	13.32913473232
47	4923	35	13.874683434349
47	5184	36	13.889309044799
47	5445	37	13.760953291024
47	5725	38	13.84702248099
47	6006	39	13.843734410629
47	6287	40	13.880435387138
47	6587	41	13.772952231898
47	6888	42	13.823117556034
47	7189	43	13.87676986591
47	7509	44	12.484014922
47	7830	45	10.174003809506
47	8151	46	7.9488538435683
47	8491	47	7.9003742619851
47	8832	48	5.1816597393205
47	9173	49	3.8410605863972
47	9533	50	6.1737894041441
47	9894	51	8.1969097548608
47	10255	52	10.085275117848
47	10635	53	12.092015123791
47	11016	54	13.959316051044
47	11397	55	13.874677349776
47	11797	56	13.973171508994
47	12198	57	13.978551438209
47	12599	58	13.914162181104
47	13019	59	13.905015724099
47	13440	60	13.98687957603
47	13861	61	13.99820128669
47	14301	62	13.875622318103
47	14742	63	13.970661931748
47	15183	64	13.92959399404
47	15643	65	13.952886315498
47	16104	66	13.918858662273
47	16565	67	13.988565095617
47	17045	68	13.926964321153
47	17526	69	13.982372404814
47	18007	70	13.954977404878
47	18507	71	13.96993314638
47	19008	72	13.888197355322
47	19509	73	13.959304088138
47	20030	74	13.996136115754
47	20551	75	13.948494376463
47	21072	76	13.990000110499
47	21612	77	13.93430676335
47	22153	78	13.87345729318
47	22694	79	13.889525845002
47	23254	80	13.920312744502
47	23815	81	13.891169979749
47	24376	82	13.994550712488
47	24956	83	13.931764254719
47	25537	84	13.944293560192
47	26118	85	13.87315252349
47	26837	86	13.900875743781
47	30507	87	13.949599670214
47	36707	88	13.985372708798
47	39749	89	13.99821892451
47	45202	90	13.873501454138
47	46470	91	13.872297207417
47	48465	92	13.92712703699
47	49252	93	13.998174717848
47	50316	94	13.989573323939
47	50976	95	13.931558320378
47	51637	96	12.041016636433
47	52298	97	9.6199675558295
47	52978	98	7.2753123753996
47	53659	99	5.1464909251974
47	54340	100	3.3394892144657
47	55040	101	1.9607330743121
47	55741	102	0.87143679078938
47	56442	103	0.43769032502663
47	57163	104	1.4395228480936e-05
47	57884	105	0
47	58605	106	0
47	59345	107	0
47	60086	108	0
47	60827	109	0
47	61587	110	0
47	62348	111	0
47	63109	112	0
47	63889	113	0
47	64670	114	0
47	65451	115	0
47	66251	116	0
47	67052	117	0
47	67853	118	0
47	68673	119	0
47	69494	120	0
47	70315	121	0
47	71155	122	0
47	71996	123	0
47	72838	124	0.19433738710931
47	73698	125	0.43516132354969
47	74559	126	0.43636959491414
47	76919	127	0.42369578225118
47	80289	128	0.43350600359438
47	83995	129	0.42882803664368
47	85081	130	0.44454997493841
47	86146	131	1.2184652009236
47	87047	132	1.9618407994699
47	87948	133	2.5129153478167
47	88869	134	2.9464374687319
47	89790	135	3.3824996155087
47	90711	136	3.6591747561284
47	91651	137	3.933963348032
47	92592	138	3.9303620118388
47	93533	139	4.2807643032428
47	94493	140	4.1118180765286
47	95454	141	4.6077883780993
47	96415	142	4.0429751296035
47	97395	143	4.9543630323918
47	98376	144	3.7499541753869
47	99357	145	5.4561794285835
47	100357	146	7.3962499227385
47	101358	147	9.5201683417857
47	102359	148	11.503921572243
47	103379	149	13.271909224068
47	104400	150	13.978355577718
47	105421	151	13.93936913792
47	106461	152	13.958402540686
47	107502	153	13.916957361202
47	108544	154	13.922070071551
47	109604	155	13.994097593781
47	110665	156	13.879558414009
47	111726	157	13.979957561544
47	112806	158	13.900641345913
47	113887	159	13.919024806565
47	114968	160	13.92037220293
47	116068	161	13.871851134824
47	117169	162	13.975649789993
47	118270	163	13.984718560767
47	119391	164	13.88307820658
47	120512	165	13.892546785153
47	121633	166	13.964194121864
47	122773	167	13.877241868922
47	123914	168	13.957557952101
47	125055	169	13.980278488586
47	126215	170	13.891384023337
47	127376	171	13.910467179646
47	128537	172	13.946432003409
47	129717	173	13.95336241714
47	130898	174	13.95300596175
47	132079	175	13.998528669409
47	133279	176	13.947897352532
47	134480	177	13.981368783491
47	135681	178	13.981635284824
47	136901	179	13.985871834599
47	138122	180	13.980477639236
47	139343	181	13.909208333418
47	140583	182	13.967776289848
47	141824	183	13.967710872714
47	143066	184	13.88298332995
47	144326	185	13.913616295385
47	145587	186	13.982153696506
47	146848	187	13.955130754984
47	148128	188	13.898205616008
47	149409	189	13.882102859186
47	150690	190	13.978586181616
47	151990	191	13.892723282427
47	153291	192	13.903524843024
47	154592	193	13.992239281146
47	155913	194	13.970854983611
47	157234	195	13.90522056631
47	158555	196	13.963622747597
47	159895	197	13.99129534408
47	161236	198	13.88893616369
47	162577	199	13.878769648697
47	163937	200	13.934302509064
46	3279	28	1578.4646326732
46	3499	29	1579.5986517062
46	3720	30	1581.7423672481
46	3941	31	1586.9080099538
46	4181	32	1593.3719751006
46	4422	33	1601.0871393541
46	4663	34	1610.0351614747
46	4923	35	1619.8598473864
46	5184	36	1629.6911440864
46	5445	37	1639.530417718
46	5725	38	1649.6739925323
46	6006	39	1661.6279815631
46	6287	40	1673.8816657187
46	6587	41	1682.7560368627
46	6888	42	1692.0128514823
46	7189	43	1695.5999165168
46	7509	44	1697.306546744
46	7830	45	1698.4143366097
46	8151	46	1699.2522509955
46	8491	47	1699.99092039
46	8832	48	1700.585499499
46	9173	49	1700.9266446279
46	9533	50	1701.4301908994
46	9894	51	1707.6362714609
46	10255	52	1716.7571854917
46	10635	53	1727.8339322917
46	11016	54	1740.8635680582
46	11397	55	1754.6674355241
46	11797	56	1768.5924180076
46	12198	57	1782.4900942137
46	12599	58	1796.3835249227
46	13019	59	1810.295890959
46	13440	60	1824.2029342465
46	13861	61	1838.1324145859
46	14301	62	1851.9968899293
46	14742	63	1865.8873176025
46	15183	64	1879.8015412651
46	15643	65	1893.708773436
46	16104	66	1907.6108170124
46	16565	67	1921.518198492
46	17045	68	1935.436019076
46	17526	69	1949.3382818336
46	18007	70	1963.2310220618
46	18507	71	1977.1150795827
46	19008	72	1991.0261905957
46	19509	73	2004.9076367822
46	20030	74	2018.7962823557
46	20551	75	2032.6964808721
46	21072	76	2046.5920114908
46	21612	77	2060.4812892936
46	22153	78	2074.3615958327
46	22694	79	2088.2480693581
46	23254	80	2101.8726252643
46	23815	81	2112.9942486044
46	24376	82	2119.4660495203
46	24956	83	2120.7221720051
46	25537	84	2120.2512520831
46	26118	85	2119.7810029797
46	26837	86	2119.3106335914
46	30507	87	2118.8392896932
46	36707	88	2118.3685813732
46	39749	89	2117.8980129417
46	45202	90	2117.4275846118
46	46470	91	2116.9582713638
46	48465	92	2116.4884188175
46	49252	93	2116.0180879394
46	50316	94	2115.548028009
46	50976	95	2113.74414647
46	51637	96	2111.9098673593
46	52298	97	2109.5776483761
46	52978	98	2106.9086164571
46	53659	99	2104.9482955551
46	54340	100	2103.6221258501
46	55040	101	2102.8273415193
46	55741	102	2102.4073225409
46	56442	103	2102.2268961994
46	57163	104	2102.1322235567
46	57884	105	2102.1322235567
46	58605	106	2102.1322235567
46	59345	107	2102.1322235567
46	60086	108	2102.1322235567
46	60827	109	2102.1322235567
46	61587	110	2102.1322235567
46	62348	111	2102.1322235567
46	63109	112	2102.1322235567
46	63889	113	2102.1322235567
46	64670	114	2102.1322235567
46	65451	115	2102.1322235567
46	66251	116	2102.1322235567
46	67052	117	2102.1322235567
46	67853	118	2102.1322235567
46	68673	119	2102.1322235567
46	69494	120	2102.1322235567
46	70315	121	2102.1322235567
46	71155	122	2102.1322235567
46	71996	123	2102.1322235567
46	72838	124	2102.1259817518
46	73698	125	2101.9882108336
46	74559	126	2101.8478779094
46	76919	127	2101.7073882846
46	80289	128	2101.5669867164
46	83995	129	2101.4265308846
46	85081	130	2101.2852961505
46	86146	131	2101.000385182
46	87047	132	2100.4734443594
46	87948	133	2099.7511616461
46	88869	134	2098.8485082816
46	89790	135	2097.5965743391
46	90711	136	2095.7757134633
46	91651	137	2093.871595718
46	92592	138	2091.8270449489
46	93533	139	2089.7589425417
46	94493	140	2087.5383233568
46	95454	141	2085.3655733122
46	96415	142	2083.0408668658
46	97395	143	2080.8376574488
46	98376	144	2078.4378784224
46	99357	145	2076.2410430415
46	100357	146	2072.0147057958
46	101358	147	2065.769391479
46	102359	148	2057.9890377792
46	103379	149	2048.849948206
46	104400	150	2038.7329096254
46	105421	151	2028.5693586329
46	106461	152	2018.3795817895
46	107502	153	2008.2238224773
46	108544	154	1998.0605894774
46	109604	155	1987.8867237242
46	110665	156	1977.7382489806
46	111726	157	1968.0277421633
46	112806	158	1958.3190454356
46	113887	159	1948.6097824555
46	114968	160	1938.8944767034
46	116068	161	1929.187513534
46	117169	162	1919.4735936224
46	118270	163	1909.7613256322
46	119391	164	1900.042545991
46	120512	165	1890.3267589193
46	121633	166	1880.6219368419
46	122773	167	1870.9018568918
46	123914	168	1860.9307055837
46	125055	169	1850.9635250606
46	126215	170	1841.0033154767
46	127376	171	1831.0348289264
46	128537	172	1821.0549509376
46	129717	173	1811.0762619749
46	130898	174	1801.0970004769
46	132079	175	1791.1106557837
46	133279	176	1781.1343204677
46	134480	177	1771.1481997427
46	135681	178	1761.4136402896
46	136901	179	1751.8099888461
46	138122	180	1742.2115744585
46	139343	181	1732.4674989134
46	140583	182	1722.6992702382
46	141824	183	1712.9521339806
46	143066	184	1703.2176955855
46	144326	185	1693.4598846575
46	145587	186	1683.7094114991
46	146848	187	1673.9528748496
46	148128	188	1664.2084997296
46	149409	189	1654.4603842758
46	150690	190	1644.6942985719
46	151990	191	1634.939475555
46	153291	192	1625.1872577891
46	154592	193	1615.4225654546
46	155913	194	1605.6660350971
46	157234	195	1595.9276684178
46	158555	196	1586.1753995689
46	159895	197	1576.4066800177
46	161236	198	1566.6547131669
46	162577	199	1556.8914111657
46	163937	200	1547.1208248399
45	3279	28	2414.8387287854
45	3499	29	2411.7503977651
45	3720	30	2406.9754091416
45	3941	31	2401.8753644078
45	4181	32	2395.4934844975
45	4422	33	2387.8762943314
45	4663	34	2379.0419022342
45	4923	35	2369.3419790111
45	5184	36	2359.6355289492
45	5445	37	2349.9212032534
45	5725	38	2340.5628082656
45	6006	39	2334.465267002
45	6287	40	2338.0647009534
45	6587	41	2348.6530792566
45	6888	42	2358.9176140998
45	7189	43	2371.8809477445
45	7509	44	2384.8846471948
45	7830	45	2396.1797201078
45	8151	46	2405.0412241777
45	8491	47	2412.8531461995
45	8832	48	2419.1412172525
45	9173	49	2423.1282091528
45	9533	50	2428.3117442011
45	9894	51	2431.1873857466
45	10255	52	2432.5734357862
45	10635	53	2434.2567018807
45	11016	54	2436.2367366786
45	11397	55	2438.1671750253
45	11797	56	2439.0675805615
45	12198	57	2440.0469834617
45	12599	58	2441.0572698959
45	13019	59	2442.0689332474
45	13440	60	2443.0802095452
45	13861	61	2444.0931173948
45	14301	62	2445.1012982862
45	14742	63	2446.1113663492
45	15183	64	2447.1231647814
45	15643	65	2448.1344548143
45	16104	66	2449.145367549
45	16565	67	2450.1566684392
45	17045	68	2450.0994799006
45	17526	69	2448.9856324941
45	18007	70	2447.8725480314
45	18507	71	2446.7601592259
45	19008	72	2445.6456028984
45	19509	73	2444.5334233128
45	20030	74	2443.4206669133
45	20551	75	2442.3069848935
45	21072	76	2441.193676865
45	21612	77	2440.1459298433
45	22153	78	2439.206466924
45	22694	79	2438.5993521463
45	23254	80	2436.1994622689
45	23815	81	2427.9942116053
45	24376	82	2415.6925457548
45	24956	83	2401.9525696691
45	25537	84	2388.0100685152
45	26118	85	2374.087428232
45	26837	86	2360.1612266978
45	30507	87	2346.2061729017
45	36707	88	2332.2699366264
45	39749	89	2318.3378420154
45	45202	90	2304.409895408
45	46470	91	2290.5149629482
45	48465	92	2276.6040635206
45	49252	93	2262.6790021491
45	50316	94	2248.7619627055
45	50976	95	2234.9580689138
45	51637	96	2222.0230961731
45	52298	97	2211.6592596417
45	52978	98	2203.7895711446
45	53659	99	2198.0095297953
45	54340	100	2194.0992946274
45	55040	101	2191.7558587702
45	55741	102	2190.5174252767
45	56442	103	2189.9854349719
45	57163	104	2189.7062909862
45	57884	105	2189.7062909862
45	58605	106	2189.7062909862
45	59345	107	2189.7062909862
45	60086	108	2189.7062909862
45	60827	109	2189.7062909862
45	61587	110	2189.7062909862
45	62348	111	2189.7062909862
45	63109	112	2189.7062909862
45	63889	113	2189.7062909862
45	64670	114	2189.7062909862
45	65451	115	2189.7062909862
45	66251	116	2189.7062909862
45	67052	117	2189.7062909862
45	67853	118	2189.7062909862
45	68673	119	2189.7062909862
45	69494	120	2189.7062909862
45	70315	121	2189.7062909862
45	71155	122	2189.7062909862
45	71996	123	2189.7062909862
45	72838	124	2189.6878869104
45	73698	125	2189.2816668886
45	74559	126	2188.8678927439
45	76919	127	2188.4536565633
45	80289	128	2188.0396800207
45	83995	129	2187.6255434804
45	85081	130	2187.2091103337
45	86146	131	2186.3690452309
45	87047	132	2184.8153507638
45	87948	133	2182.6856872246
45	88869	134	2180.0241975846
45	89790	135	2177.1370105004
45	90711	136	2174.0439075372
45	91651	137	2170.8093758288
45	92592	138	2167.3362900337
45	93533	139	2163.8231969853
45	94493	140	2160.0510231358
45	95454	141	2156.3601647676
45	96415	142	2152.4111775095
45	97395	143	2148.6685776961
45	98376	144	2144.5920643745
45	99357	145	2140.8602921581
45	100357	146	2135.9431687039
45	101358	147	2130.0927632907
45	102359	148	2122.8043833801
45	103379	149	2114.2431843119
45	104400	150	2104.7658747199
45	105421	151	2095.2449938281
45	106461	152	2085.6995454195
45	107502	153	2076.1859635183
45	108544	154	2066.6653805115
45	109604	155	2057.1348370903
45	110665	156	2047.5847088342
45	111726	157	2037.5954921015
45	112806	158	2027.6081374113
45	113887	159	2017.6202002169
45	114968	160	2007.6260468111
45	116068	161	1997.6404754356
45	117169	162	1987.6477476463
45	118270	163	1977.6567191922
45	119391	164	1967.6589921905
45	120512	165	1957.6643436498
45	121633	166	1947.6809748202
45	122773	167	1937.6819101879
45	123914	168	1927.9513935222
45	125055	169	1918.2248499021
45	126215	170	1908.5051089223
45	127376	171	1898.7772908061
45	128537	172	1889.0383562744
45	129717	173	1879.3005820621
45	130898	174	1869.5622491369
45	132079	175	1859.8170040264
45	133279	176	1850.0815266364
45	134480	177	1840.3365000865
45	135681	178	1830.3795230963
45	136901	179	1820.2677029793
45	138122	180	1810.1613970334
45	139343	181	1800.1879708271
45	140583	182	1790.2205179348
45	141824	183	1780.2745876417
45	143066	184	1770.3416141865
45	144326	185	1760.3847915115
45	145587	186	1750.4354562619
45	146848	187	1740.4799338549
45	148128	188	1730.5368210133
45	149409	189	1720.5898915535
45	150690	190	1710.6246253379
45	151990	191	1700.6708515137
45	153291	192	1690.7197360751
45	154592	193	1680.7558916467
45	155913	194	1670.8003756602
45	157234	195	1660.8633938022
45	158555	196	1650.9122262388
45	159895	197	1640.9442724577
45	161236	198	1630.9934130512
45	162577	199	1621.0309873131
45	163937	200	1611.240567375

